================================================================================
TRANSACTION DEDUPLICATION LOG
================================================================================
Run timestamp: 2025-10-16 16:24:57
Input file: /home/kurt/Projects/taxes/generated-files/merged/2022_all-transactions_merged_2025-10-15.csv
Output file: /home/kurt/Projects/taxes/generated-files/merged-deduped/2022_deduped_2025-10-16_162457.csv
Review file: /home/kurt/Projects/taxes/generated-files/merged-deduped/2022_deduped_2025-10-16_162457_review.md
Log file: /home/kurt/Projects/taxes/generated-files/merged-deduped/2022_deduped_2025-10-16_162457.log
================================================================================
Loading transactions from: /home/kurt/Projects/taxes/generated-files/merged/2022_all-transactions_merged_2025-10-15.csv
Loaded 2710 transactions

Searching for duplicates (date window: ±5 days)
================================================================================

✓ DUPLICATE FOUND (#1)
  Amount: $-13.12
  Date difference: 2 days
  KEPT (Privacy.com):
    Date: 2022-01-01
    Description: Pwp AMAZON.COM*QM9EH6BI3
    Row: 2
  REMOVED (Wells Fargo):
    Date: 2022-01-03
    Description: Pwp Amazon.Com* Privacycom TN: 4454793 (844) 771-8229
    Row: 27

✓ DUPLICATE FOUND (#2)
  Amount: $-8.50
  Date difference: 2 days
  KEPT (Privacy.com):
    Date: 2022-01-01
    Description: Pwp AMZN Mktp US*8820R2183
    Row: 3
  REMOVED (Wells Fargo):
    Date: 2022-01-03
    Description: Pwp Amzn Mktp U Privacycom TN: 1412233 (844) 771-8229
    Row: 25

✓ DUPLICATE FOUND (#3)
  Amount: $-41.60
  Date difference: 2 days
  KEPT (Privacy.com):
    Date: 2022-01-01
    Description: Pwp AMAZON.COM*197810FZ3
    Row: 4
  REMOVED (Wells Fargo):
    Date: 2022-01-03
    Description: Pwp Amazon.Com* Privacycom TN: 9730906 (844) 771-8229
    Row: 30

✓ DUPLICATE FOUND (#4)
  Amount: $-53.81
  Date difference: 4 days
  KEPT (Privacy.com):
    Date: 2022-01-02
    Description: Pwp AMAZON.COM*PJ6H74FY3 AMZN
    Row: 5
  REMOVED (Wells Fargo):
    Date: 2022-01-06
    Description: Pwp Amazon.Com* Privacycom TN: 1903667 (844) 771-8229
    Row: 62

✓ DUPLICATE FOUND (#5)
  Amount: $-38.47
  Date difference: 3 days
  KEPT (Privacy.com):
    Date: 2022-01-02
    Description: Pwp AMZN Mktp US*859GX9RX3
    Row: 7
  REMOVED (Wells Fargo):
    Date: 2022-01-05
    Description: Pwp Amzn Mktp U Privacycom TN: 3437221 (844) 771-8229
    Row: 55

✓ DUPLICATE FOUND (#6)
  Amount: $-12.03
  Date difference: 2 days
  KEPT (Privacy.com):
    Date: 2022-01-02
    Description: Pwp Amazon.com*WY5OA1IP3
    Row: 8
  REMOVED (Wells Fargo):
    Date: 2022-01-04
    Description: Pwp Amazon.Com* Privacycom TN: 5074318 (844) 771-8229
    Row: 45

✓ DUPLICATE FOUND (#7)
  Amount: $-32.82
  Date difference: 1 days
  KEPT (Privacy.com):
    Date: 2022-01-02
    Description: Pwp AMAZON.COM*6L84P2LY3
    Row: 11
  REMOVED (Wells Fargo):
    Date: 2022-01-03
    Description: Pwp Amazon.Com* Privacycom TN: 5216067 (844) 771-8229
    Row: 28

✓ DUPLICATE FOUND (#8)
  Amount: $-37.12
  Date difference: 1 days
  KEPT (Privacy.com):
    Date: 2022-01-02
    Description: Pwp AMAZON.COM*WT4PE4IV3
    Row: 13
  REMOVED (Wells Fargo):
    Date: 2022-01-03
    Description: Pwp Amazon.Com* Privacycom TN: 3114085 (844) 771-8229
    Row: 29

✓ DUPLICATE FOUND (#9)
  Amount: $-65.69
  Date difference: 1 days
  KEPT (Privacy.com):
    Date: 2022-01-02
    Description: Pwp AMAZON.COM*9V76H7VJ3
    Row: 14
  REMOVED (Wells Fargo):
    Date: 2022-01-03
    Description: Pwp Amazon.Com* Privacycom TN: 3670551 (844) 771-8229
    Row: 31

✓ DUPLICATE FOUND (#10)
  Amount: $-65.69
  Date difference: 5 days
  KEPT (Privacy.com):
    Date: 2022-01-08
    Description: Pwp AMAZON.COM
    Row: 72
  REMOVED (Wells Fargo):
    Date: 2022-01-03
    Description: Pwp Amazon.Com* Privacycom TN: 3670551 (844) 771-8229
    Row: 31

✓ DUPLICATE FOUND (#11)
  Amount: $-9.03
  Date difference: 3 days
  KEPT (Privacy.com):
    Date: 2022-01-15
    Description: Pwp DNH*GODADDY.COM
    Row: 140
  REMOVED (Wells Fargo):
    Date: 2022-01-18
    Description: Pwp Dnh*Godaddy Privacycom TN: 9548168 (844) 771-8229
    Row: 155

✓ DUPLICATE FOUND (#12)
  Amount: $-19.18
  Date difference: 1 days
  KEPT (Privacy.com):
    Date: 2022-01-03
    Description: Pwp Amazon web services
    Row: 33
  REMOVED (Wells Fargo):
    Date: 2022-01-04
    Description: Pwp Amazon Web Privacycom TN: 5153350 (844) 771-8229
    Row: 46

✓ DUPLICATE FOUND (#13)
  Amount: $-19.18
  Date difference: 1 days
  KEPT (Privacy.com):
    Date: 2022-02-03
    Description: Pwp Amazon web services
    Row: 286
  REMOVED (Wells Fargo):
    Date: 2022-02-04
    Description: Pwp Amazon Web Privacycom TN: 6928258 (844) 771-8229
    Row: 292

✓ DUPLICATE FOUND (#14)
  Amount: $-34.20
  Date difference: 1 days
  KEPT (Privacy.com):
    Date: 2022-01-03
    Description: Pwp PINATA CLOUD
    Row: 34
  REMOVED (Wells Fargo):
    Date: 2022-01-04
    Description: Pwp Pinata Clou Privacycom TN: 9767026 (844) 771-8229
    Row: 48

✓ DUPLICATE FOUND (#15)
  Amount: $-20.79
  Date difference: 1 days
  KEPT (Privacy.com):
    Date: 2022-01-03
    Description: Pwp AMAZON.COM*6U79P0E43
    Row: 35
  REMOVED (Wells Fargo):
    Date: 2022-01-04
    Description: Pwp Amazon.Com* Privacycom TN: 3646662 (844) 771-8229
    Row: 47

✓ DUPLICATE FOUND (#16)
  Amount: $-26.24
  Date difference: 2 days
  KEPT (Privacy.com):
    Date: 2022-01-03
    Description: Pwp AMZN Mktp US*N86PY8RN3
    Row: 36
  REMOVED (Wells Fargo):
    Date: 2022-01-05
    Description: Pwp Amzn Mktp U Privacycom TN: 4390215 (844) 771-8229
    Row: 54

✓ DUPLICATE FOUND (#17)
  Amount: $-12.14
  Date difference: 2 days
  KEPT (Privacy.com):
    Date: 2022-01-03
    Description: Pwp AMZN Mktp US*UP6AO8DS3
    Row: 38
  REMOVED (Wells Fargo):
    Date: 2022-01-05
    Description: Pwp Amzn Mktp U Privacycom TN: 1230917 (844) 771-8229
    Row: 53

✓ DUPLICATE FOUND (#18)
  Amount: $-15.00
  Date difference: 2 days
  KEPT (Privacy.com):
    Date: 2022-04-23
    Description: Pwp AMZN Mktp US*1Q6CU1XG1
    Row: 855
  REMOVED (Wells Fargo):
    Date: 2022-04-25
    Description: Pwp Amzn Mktp U Privacycom TN: 8996402 (844) 771-8229
    Row: 868

✓ DUPLICATE FOUND (#19)
  Amount: $-15.00
  Date difference: 2 days
  KEPT (Privacy.com):
    Date: 2022-10-31
    Description: Pwp AMZN Mktp US*H29QE1OL0
    Row: 2200
  REMOVED (Wells Fargo):
    Date: 2022-11-02
    Description: Pwp Amzn Mktp U Privacycom TN: 3021937 (844) 771-8229
    Row: 2213

✓ DUPLICATE FOUND (#20)
  Amount: $-6.99
  Date difference: 1 days
  KEPT (Privacy.com):
    Date: 2022-01-05
    Description: Pwp HLU*Hulu 1910927651266-U
    Row: 56
  REMOVED (Wells Fargo):
    Date: 2022-01-06
    Description: Pwp Hlu*Hulu 19 Privacycom TN: 8280931 (844) 771-8229
    Row: 61

✓ DUPLICATE FOUND (#21)
  Amount: $-75.00
  Date difference: 4 days
  KEPT (Privacy.com):
    Date: 2022-01-06
    Description: Pwp HOO*HOOTSUITE INC
    Row: 63
  REMOVED (Wells Fargo):
    Date: 2022-01-10
    Description: Pwp Hoo*Hootsui Privacycom TN: 1180131 (844) 771-8229
    Row: 90

✓ DUPLICATE FOUND (#22)
  Amount: $-9.84
  Date difference: 4 days
  KEPT (Privacy.com):
    Date: 2022-01-06
    Description: Pwp AMZN Mktp US*V85H98JR3
    Row: 64
  REMOVED (Wells Fargo):
    Date: 2022-01-10
    Description: Pwp Amzn Mktp U Privacycom TN: 1176093 (844) 771-8229
    Row: 85

✓ DUPLICATE FOUND (#23)
  Amount: $-2.99
  Date difference: 1 days
  KEPT (Privacy.com):
    Date: 2022-01-06
    Description: Pwp Prime Video*QW38W6P73
    Row: 65
  REMOVED (Wells Fargo):
    Date: 2022-01-07
    Description: Pwp Prime Video Privacycom TN: 8126565 (844) 771-8229
    Row: 68

✓ DUPLICATE FOUND (#24)
  Amount: $-30.00
  Date difference: 2 days
  KEPT (Privacy.com):
    Date: 2022-07-06
    Description: Pwp GOOGLE*DOMAINS
    Row: 1388
  REMOVED (Wells Fargo):
    Date: 2022-07-08
    Description: Pwp Google*Doma Privacycom TN: 3199201 (844) 771-8229
    Row: 1407

✓ DUPLICATE FOUND (#25)
  Amount: $-24.99
  Date difference: 3 days
  KEPT (Privacy.com):
    Date: 2022-01-07
    Description: Pwp DNH*GODADDY.COM
    Row: 69
  REMOVED (Wells Fargo):
    Date: 2022-01-10
    Description: Pwp Dnh*Godaddy Privacycom TN: 6964190 (844) 771-8229
    Row: 87

✓ DUPLICATE FOUND (#26)
  Amount: $-24.99
  Date difference: 3 days
  KEPT (Privacy.com):
    Date: 2022-01-21
    Description: Pwp DNH*GODADDY.COM
    Row: 191
  REMOVED (Wells Fargo):
    Date: 2022-01-24
    Description: Pwp Dnh*Godaddy Privacycom TN: 6999416 (844) 771-8229
    Row: 216

✓ DUPLICATE FOUND (#27)
  Amount: $-32.97
  Date difference: 2 days
  KEPT (Privacy.com):
    Date: 2022-01-08
    Description: Pwp APPLE COM BILL
    Row: 70
  REMOVED (Wells Fargo):
    Date: 2022-01-10
    Description: Pwp Apple Com B Privacycom TN: 9021096 (844) 771-8229
    Row: 88

✓ DUPLICATE FOUND (#28)
  Amount: $-19.62
  Date difference: 2 days
  KEPT (Privacy.com):
    Date: 2022-01-08
    Description: Pwp Amazon.com*413ZF7FZ3
    Row: 71
  REMOVED (Wells Fargo):
    Date: 2022-01-10
    Description: Pwp Amazon.Com* Privacycom TN: 2830672 (844) 771-8229
    Row: 86

✓ DUPLICATE FOUND (#29)
  Amount: $-38.70
  Date difference: 2 days
  KEPT (Privacy.com):
    Date: 2022-01-08
    Description: Pwp AMAZON.COM*NV5ZS4GB3
    Row: 73
  REMOVED (Wells Fargo):
    Date: 2022-01-10
    Description: Pwp Amazon.Com* Privacycom TN: 4025244 (844) 771-8229
    Row: 89

✓ DUPLICATE FOUND (#30)
  Amount: $-4.99
  Date difference: 2 days
  KEPT (Privacy.com):
    Date: 2022-01-09
    Description: Pwp APPLE.COM/BILL
    Row: 74
  REMOVED (Wells Fargo):
    Date: 2022-01-11
    Description: Pwp Apple.Com/B Privacycom TN: 1849036 (844) 771-8229
    Row: 100

✓ DUPLICATE FOUND (#31)
  Amount: $-299.00
  Date difference: 0 days
  KEPT (Privacy.com):
    Date: 2022-01-10
    Description: Pwp QUICKNODE API
    Row: 92
  REMOVED (Wells Fargo):
    Date: 2022-01-10
    Description: Pwp Quicknode A Privacycom TN: 7627339 (844) 771-8229
    Row: 91

✓ DUPLICATE FOUND (#32)
  Amount: $-256.05
  Date difference: 2 days
  KEPT (Privacy.com):
    Date: 2022-01-10
    Description: Pwp AMZN Mktp US*IF8SH81P3
    Row: 94
  REMOVED (Wells Fargo):
    Date: 2022-01-12
    Description: Pwp Amzn Mktp U Privacycom TN: 2700218 (844) 771-8229
    Row: 110

✓ DUPLICATE FOUND (#33)
  Amount: $-35.17
  Date difference: 3 days
  KEPT (Privacy.com):
    Date: 2022-01-10
    Description: Pwp AMZN Mktp US*021302RP3
    Row: 95
  REMOVED (Wells Fargo):
    Date: 2022-01-13
    Description: Pwp Amzn Mktp U Privacycom TN: 8120694 (844) 771-8229
    Row: 119

✓ DUPLICATE FOUND (#34)
  Amount: $-5.00
  Date difference: 1 days
  KEPT (Privacy.com):
    Date: 2022-01-10
    Description: Pwp Amazon Tips*KQ1V84FW3
    Row: 96
  REMOVED (Wells Fargo):
    Date: 2022-01-11
    Description: Pwp Amazon Tips Privacycom TN: 5582321 (844) 771-8229
    Row: 101

✓ DUPLICATE FOUND (#35)
  Amount: $-5.00
  Date difference: 1 days
  KEPT (Privacy.com):
    Date: 2022-02-28
    Description: Pwp Amazon Tips*1W94Q04B1
    Row: 498
  REMOVED (Wells Fargo):
    Date: 2022-03-01
    Description: Pwp Amazon Tips Privacycom TN: 5564999 (844) 771-8229
    Row: 503

✓ DUPLICATE FOUND (#36)
  Amount: $-5.00
  Date difference: 2 days
  KEPT (Privacy.com):
    Date: 2022-05-18
    Description: Pwp Amazon Tips*1L0GJ2DW2
    Row: 1041
  REMOVED (Wells Fargo):
    Date: 2022-05-20
    Description: Pwp Amazon Tips Privacycom TN: 3040467 (844) 771-8229
    Row: 1057

✓ DUPLICATE FOUND (#37)
  Amount: $-5.00
  Date difference: 1 days
  KEPT (Privacy.com):
    Date: 2022-06-22
    Description: Pwp Amazon Tips*Z111V07S3
    Row: 1283
  REMOVED (Wells Fargo):
    Date: 2022-06-23
    Description: Pwp Amazon Tips Privacycom TN: 4765088 (844) 771-8229
    Row: 1286

✓ DUPLICATE FOUND (#38)
  Amount: $-5.00
  Date difference: 3 days
  KEPT (Privacy.com):
    Date: 2022-07-22
    Description: Pwp Amazon Tips*3T8DN0OD3
    Row: 1496
  REMOVED (Wells Fargo):
    Date: 2022-07-25
    Description: Pwp Amazon Tips Privacycom TN: 1693442 (844) 771-8229
    Row: 1500

✓ DUPLICATE FOUND (#39)
  Amount: $-5.00
  Date difference: 2 days
  KEPT (Privacy.com):
    Date: 2022-09-10
    Description: Pwp Amazon Tips*1F30T5XO0
    Row: 1816
  REMOVED (Wells Fargo):
    Date: 2022-09-12
    Description: Pwp Amazon Tips Privacycom TN: 1358790 (844) 771-8229
    Row: 1834

✓ DUPLICATE FOUND (#40)
  Amount: $-5.00
  Date difference: 3 days
  KEPT (Privacy.com):
    Date: 2022-11-25
    Description: Pwp Amazon Tips*HW2385XU1
    Row: 2386
  REMOVED (Wells Fargo):
    Date: 2022-11-28
    Description: Pwp Amazon Tips Privacycom TN: 1768276 (844) 771-8229
    Row: 2411

✓ DUPLICATE FOUND (#41)
  Amount: $-24.00
  Date difference: 2 days
  KEPT (Privacy.com):
    Date: 2022-01-10
    Description: Pwp GOOGLE*DOMAINS
    Row: 97
  REMOVED (Wells Fargo):
    Date: 2022-01-12
    Description: Pwp Google*Doma Privacycom TN: 2925197 (844) 771-8229
    Row: 109

✓ DUPLICATE FOUND (#42)
  Amount: $-24.00
  Date difference: 3 days
  KEPT (Privacy.com):
    Date: 2022-03-25
    Description: Pwp GOOGLE *Domains
    Row: 646
  REMOVED (Wells Fargo):
    Date: 2022-03-28
    Description: Pwp Google *Dom Privacycom TN: 5238531 (844) 771-8229
    Row: 665

✓ DUPLICATE FOUND (#43)
  Amount: $-24.00
  Date difference: 2 days
  KEPT (Privacy.com):
    Date: 2022-04-19
    Description: Pwp GOOGLE*DOMAINS
    Row: 828
  REMOVED (Wells Fargo):
    Date: 2022-04-21
    Description: Pwp Google*Doma Privacycom TN: 6917510 (844) 771-8229
    Row: 843

✓ DUPLICATE FOUND (#44)
  Amount: $-181.19
  Date difference: 4 days
  KEPT (Privacy.com):
    Date: 2022-01-10
    Description: Pwp Amazon.com*EA73H3GS3
    Row: 98
  REMOVED (Wells Fargo):
    Date: 2022-01-14
    Description: Pwp Amazon.Com* Privacycom TN: 1290441 (844) 771-8229
    Row: 127

✓ DUPLICATE FOUND (#45)
  Amount: $-514.00
  Date difference: 1 days
  KEPT (Privacy.com):
    Date: 2022-01-11
    Description: Pwp HEROKU DEC-60135249
    Row: 102
  REMOVED (Wells Fargo):
    Date: 2022-01-12
    Description: Pwp Heroku Dec- Privacycom TN: 5656574 (844) 771-8229
    Row: 111

✓ DUPLICATE FOUND (#46)
  Amount: $-9.99
  Date difference: 3 days
  KEPT (Privacy.com):
    Date: 2022-01-15
    Description: Pwp APPLE.COM/BILL
    Row: 139
  REMOVED (Wells Fargo):
    Date: 2022-01-18
    Description: Pwp Apple.Com/B Privacycom TN: 3664925 (844) 771-8229
    Row: 157

✓ DUPLICATE FOUND (#47)
  Amount: $-9.99
  Date difference: 3 days
  KEPT (Privacy.com):
    Date: 2022-04-02
    Description: Pwp AMZN Digital*165X18BN2
    Row: 699
  REMOVED (Wells Fargo):
    Date: 2022-04-05
    Description: Pwp Amzn Digita Privacycom TN: 6307992 (844) 771-8229
    Row: 719

✓ DUPLICATE FOUND (#48)
  Amount: $-9.99
  Date difference: 2 days
  KEPT (Privacy.com):
    Date: 2022-04-11
    Description: Pwp HEROKU MAR-64247326
    Row: 770
  REMOVED (Wells Fargo):
    Date: 2022-04-13
    Description: Pwp Heroku Mar- Privacycom TN: 6869772 (844) 771-8229
    Row: 786

✓ DUPLICATE FOUND (#49)
  Amount: $-348.54
  Date difference: 1 days
  KEPT (Privacy.com):
    Date: 2022-01-12
    Description: Pwp HEROKU DEC-59293411
    Row: 112
  REMOVED (Wells Fargo):
    Date: 2022-01-13
    Description: Pwp Heroku Dec- Privacycom TN: 5020017 (844) 771-8229
    Row: 121

✓ DUPLICATE FOUND (#50)
  Amount: $-348.53
  Date difference: 1 days
  KEPT (Privacy.com):
    Date: 2022-01-12
    Description: Pwp HEROKU NOV-57636800
    Row: 113
  REMOVED (Wells Fargo):
    Date: 2022-01-13
    Description: Pwp Heroku Nov- Privacycom TN: 4215265 (844) 771-8229
    Row: 120

✓ DUPLICATE FOUND (#51)
  Amount: $-42.89
  Date difference: 5 days
  KEPT (Privacy.com):
    Date: 2022-01-13
    Description: Pwp AMZN Mktp US*V894K5VJ3
    Row: 122
  REMOVED (Wells Fargo):
    Date: 2022-01-18
    Description: Pwp Amzn Mktp U Privacycom TN: 4337107 (844) 771-8229
    Row: 165

✓ DUPLICATE FOUND (#52)
  Amount: $-42.89
  Date difference: 5 days
  KEPT (Privacy.com):
    Date: 2022-05-26
    Description: Pwp AMAZON.COM*1R5G02SZ0 AMZN
    Row: 1091
  REMOVED (Wells Fargo):
    Date: 2022-05-31
    Description: Pwp Amazon.Com* Privacycom TN: 5997903 (844) 771-8229
    Row: 1124

✓ DUPLICATE FOUND (#53)
  Amount: $-42.89
  Date difference: 1 days
  KEPT (Privacy.com):
    Date: 2022-06-07
    Description: Pwp AMZN Mktp US*O788C2073
    Row: 1163
  REMOVED (Wells Fargo):
    Date: 2022-06-08
    Description: Pwp Amzn Mktp U Privacycom TN: 6477522 (844) 771-8229
    Row: 1176

✓ DUPLICATE FOUND (#54)
  Amount: $-42.89
  Date difference: 2 days
  KEPT (Privacy.com):
    Date: 2022-08-21
    Description: Pwp AMZN Mktp US*9R0QP7SB3
    Row: 1665
  REMOVED (Wells Fargo):
    Date: 2022-08-23
    Description: Pwp Amzn Mktp U Privacycom TN: 2482000 (844) 771-8229
    Row: 1683

✓ DUPLICATE FOUND (#55)
  Amount: $-7.00
  Date difference: 2 days
  KEPT (Privacy.com):
    Date: 2022-02-26
    Description: Pwp Amazon Tips*1I1IE1W21
    Row: 474
  REMOVED (Wells Fargo):
    Date: 2022-02-28
    Description: Pwp Amazon Tips Privacycom TN: 4092438 (844) 771-8229
    Row: 491

✓ DUPLICATE FOUND (#56)
  Amount: $-7.00
  Date difference: 1 days
  KEPT (Privacy.com):
    Date: 2022-05-31
    Description: Pwp Amazon Tips*5Z1P220E3
    Row: 1130
  REMOVED (Wells Fargo):
    Date: 2022-06-01
    Description: Pwp Amazon Tips Privacycom TN: 5023979 (844) 771-8229
    Row: 1132

✓ DUPLICATE FOUND (#57)
  Amount: $-7.00
  Date difference: 2 days
  KEPT (Privacy.com):
    Date: 2022-08-27
    Description: Pwp Amazon Tips*A10OL3NN3
    Row: 1712
  REMOVED (Wells Fargo):
    Date: 2022-08-29
    Description: Pwp Amazon Tips Privacycom TN: 2477535 (844) 771-8229
    Row: 1723

✓ DUPLICATE FOUND (#58)
  Amount: $-7.00
  Date difference: 1 days
  KEPT (Privacy.com):
    Date: 2022-10-04
    Description: Pwp Amazon Tips*147W63SY1
    Row: 1969
  REMOVED (Wells Fargo):
    Date: 2022-10-05
    Description: Pwp Amazon Tips Privacycom TN: 1135810 (844) 771-8229
    Row: 1974

✓ DUPLICATE FOUND (#59)
  Amount: $-7.00
  Date difference: 2 days
  KEPT (Privacy.com):
    Date: 2022-10-22
    Description: Pwp Amazon Tips*H883X0SP0
    Row: 2135
  REMOVED (Wells Fargo):
    Date: 2022-10-24
    Description: Pwp Amazon Tips Privacycom TN: 5356093 (844) 771-8229
    Row: 2149

✓ DUPLICATE FOUND (#60)
  Amount: $-5.99
  Date difference: 4 days
  KEPT (Privacy.com):
    Date: 2022-01-14
    Description: Pwp APPLE.COM/BILL
    Row: 129
  REMOVED (Wells Fargo):
    Date: 2022-01-18
    Description: Pwp Apple.Com/B Privacycom TN: 2911208 (844) 771-8229
    Row: 153

✓ DUPLICATE FOUND (#61)
  Amount: $-5.99
  Date difference: 1 days
  KEPT (Privacy.com):
    Date: 2022-01-27
    Description: Pwp APPLE.COM/BILL
    Row: 245
  REMOVED (Wells Fargo):
    Date: 2022-01-28
    Description: Pwp Apple.Com/B Privacycom TN: 2747954 (844) 771-8229
    Row: 250

✓ DUPLICATE FOUND (#62)
  Amount: $-6.41
  Date difference: 4 days
  KEPT (Privacy.com):
    Date: 2022-01-14
    Description: Pwp Amazon.com*AS1BY0YQ3
    Row: 130
  REMOVED (Wells Fargo):
    Date: 2022-01-18
    Description: Pwp Amazon.Com* Privacycom TN: 9668745 (844) 771-8229
    Row: 154

✓ DUPLICATE FOUND (#63)
  Amount: $-10.70
  Date difference: 4 days
  KEPT (Privacy.com):
    Date: 2022-01-14
    Description: Pwp AMZN Mktp US*5H37U5GN3
    Row: 131
  REMOVED (Wells Fargo):
    Date: 2022-01-18
    Description: Pwp Amzn Mktp U Privacycom TN: 4275909 (844) 771-8229
    Row: 158

✓ DUPLICATE FOUND (#64)
  Amount: $-55.39
  Date difference: 4 days
  KEPT (Privacy.com):
    Date: 2022-01-14
    Description: Pwp AMZN Mktp US*AC69T31Z3
    Row: 132
  REMOVED (Wells Fargo):
    Date: 2022-01-18
    Description: Pwp Amzn Mktp U Privacycom TN: 8823284 (844) 771-8229
    Row: 166

✓ DUPLICATE FOUND (#65)
  Amount: $-19.99
  Date difference: 3 days
  KEPT (Privacy.com):
    Date: 2022-01-15
    Description: Pwp APPLE.COM/BILL
    Row: 134
  REMOVED (Wells Fargo):
    Date: 2022-01-18
    Description: Pwp Apple.Com/B Privacycom TN: 9877983 (844) 771-8229
    Row: 161

✓ DUPLICATE FOUND (#66)
  Amount: $-9.98
  Date difference: 3 days
  KEPT (Privacy.com):
    Date: 2022-01-15
    Description: Pwp APPLE.COM/BILL
    Row: 135
  REMOVED (Wells Fargo):
    Date: 2022-01-18
    Description: Pwp Apple.Com/B Privacycom TN: 3089651 (844) 771-8229
    Row: 156

✓ DUPLICATE FOUND (#67)
  Amount: $-12.00
  Date difference: 1 days
  KEPT (Privacy.com):
    Date: 2022-03-22
    Description: Pwp GOOGLE *Domains
    Row: 625
  REMOVED (Wells Fargo):
    Date: 2022-03-23
    Description: Pwp Google *Dom Privacycom TN: 1556455 (844) 771-8229
    Row: 632

✓ DUPLICATE FOUND (#68)
  Amount: $-101.83
  Date difference: 3 days
  KEPT (Privacy.com):
    Date: 2022-01-15
    Description: Pwp AMZN Mktp US*XM0SR39C3
    Row: 137
  REMOVED (Wells Fargo):
    Date: 2022-01-18
    Description: Pwp Amzn Mktp U Privacycom TN: 7954152 (844) 771-8229
    Row: 167

✓ DUPLICATE FOUND (#69)
  Amount: $-284.05
  Date difference: 3 days
  KEPT (Privacy.com):
    Date: 2022-01-15
    Description: Pwp HIVELOCITY, INC.
    Row: 138
  REMOVED (Wells Fargo):
    Date: 2022-01-18
    Description: Pwp Hivelocity Privacycom TN: 1719957 (844) 771-8229
    Row: 168

✓ DUPLICATE FOUND (#70)
  Amount: $-35.37
  Date difference: 2 days
  KEPT (Privacy.com):
    Date: 2022-01-16
    Description: Pwp Amazon.com*II70J88A3
    Row: 142
  REMOVED (Wells Fargo):
    Date: 2022-01-18
    Description: Pwp Amazon.Com* Privacycom TN: 9663020 (844) 771-8229
    Row: 163

✓ DUPLICATE FOUND (#71)
  Amount: $-36.20
  Date difference: 2 days
  KEPT (Privacy.com):
    Date: 2022-01-16
    Description: Pwp AMZN Mktp US*BT62V3713
    Row: 143
  REMOVED (Wells Fargo):
    Date: 2022-01-18
    Description: Pwp Amzn Mktp U Privacycom TN: 5712472 (844) 771-8229
    Row: 164

✓ DUPLICATE FOUND (#72)
  Amount: $-26.37
  Date difference: 2 days
  KEPT (Privacy.com):
    Date: 2022-01-16
    Description: Pwp AMZN Mktp US*H27OV48H3
    Row: 144
  REMOVED (Wells Fargo):
    Date: 2022-01-18
    Description: Pwp Amzn Mktp U Privacycom TN: 8220915 (844) 771-8229
    Row: 162

✓ DUPLICATE FOUND (#73)
  Amount: $-99.00
  Date difference: 2 days
  KEPT (Privacy.com):
    Date: 2022-03-02
    Description: Pwp QUICKNODE API
    Row: 518
  REMOVED (Wells Fargo):
    Date: 2022-03-04
    Description: Pwp Quicknode A Privacycom TN: 2732147 (844) 771-8229
    Row: 528

✓ DUPLICATE FOUND (#74)
  Amount: $-99.00
  Date difference: 3 days
  KEPT (Privacy.com):
    Date: 2022-04-02
    Description: Pwp QUICKNODE API
    Row: 700
  REMOVED (Wells Fargo):
    Date: 2022-04-05
    Description: Pwp Quicknode A Privacycom TN: 9130060 (844) 771-8229
    Row: 723

✓ DUPLICATE FOUND (#75)
  Amount: $-99.00
  Date difference: 2 days
  KEPT (Privacy.com):
    Date: 2022-05-02
    Description: Pwp QUICKNODE API
    Row: 930
  REMOVED (Wells Fargo):
    Date: 2022-05-04
    Description: Pwp Quicknode A Privacycom TN: 1710209 (844) 771-8229
    Row: 944

✓ DUPLICATE FOUND (#76)
  Amount: $-99.00
  Date difference: 2 days
  KEPT (Privacy.com):
    Date: 2022-05-15
    Description: Pwp QUICKNODE API
    Row: 1009
  REMOVED (Wells Fargo):
    Date: 2022-05-17
    Description: Pwp Quicknode A Privacycom TN: 9437114 (844) 771-8229
    Row: 1029

✓ DUPLICATE FOUND (#77)
  Amount: $-99.00
  Date difference: 4 days
  KEPT (Privacy.com):
    Date: 2022-06-02
    Description: Pwp QUICKNODE API
    Row: 1140
  REMOVED (Wells Fargo):
    Date: 2022-06-06
    Description: Pwp Quicknode A Privacycom TN: 4675926 (844) 771-8229
    Row: 1158

✓ DUPLICATE FOUND (#78)
  Amount: $-99.00
  Date difference: 3 days
  KEPT (Privacy.com):
    Date: 2022-07-02
    Description: Pwp QUICKNODE API
    Row: 1351
  REMOVED (Wells Fargo):
    Date: 2022-07-05
    Description: Pwp Quicknode A Privacycom TN: 1697947 (844) 771-8229
    Row: 1372

✓ DUPLICATE FOUND (#79)
  Amount: $-99.00
  Date difference: 2 days
  KEPT (Privacy.com):
    Date: 2022-08-02
    Description: Pwp QUICKNODE API
    Row: 1568
  REMOVED (Wells Fargo):
    Date: 2022-08-04
    Description: Pwp Quicknode A Privacycom TN: 7550198 (844) 771-8229
    Row: 1578

✓ DUPLICATE FOUND (#80)
  Amount: $-99.00
  Date difference: 4 days
  KEPT (Privacy.com):
    Date: 2022-09-02
    Description: Pwp QUICKNODE API
    Row: 1757
  REMOVED (Wells Fargo):
    Date: 2022-09-06
    Description: Pwp Quicknode A Privacycom TN: 1516078 (844) 771-8229
    Row: 1782

✓ DUPLICATE FOUND (#81)
  Amount: $-43.91
  Date difference: 1 days
  KEPT (Privacy.com):
    Date: 2022-01-18
    Description: Pwp AMZN Mktp US*AT69M7VW3
    Row: 169
  REMOVED (Wells Fargo):
    Date: 2022-01-19
    Description: Pwp Amzn Mktp U Privacycom TN: 1970692 (844) 771-8229
    Row: 172

✓ DUPLICATE FOUND (#82)
  Amount: $-188.71
  Date difference: 2 days
  KEPT (Privacy.com):
    Date: 2022-01-18
    Description: Pwp AMZN Mktp US*TM6046RM3
    Row: 170
  REMOVED (Wells Fargo):
    Date: 2022-01-20
    Description: Pwp Amzn Mktp U Privacycom TN: 6935127 (844) 771-8229
    Row: 177

✓ DUPLICATE FOUND (#83)
  Amount: $-321.74
  Date difference: 2 days
  KEPT (Privacy.com):
    Date: 2022-01-19
    Description: Pwp AMZN Mktp US*6K3A08CS3
    Row: 175
  REMOVED (Wells Fargo):
    Date: 2022-01-21
    Description: Pwp Amzn Mktp U Privacycom TN: 4974223 (844) 771-8229
    Row: 186

✓ DUPLICATE FOUND (#84)
  Amount: $-321.74
  Date difference: 2 days
  KEPT (Privacy.com):
    Date: 2022-02-08
    Description: Pwp AMZN Mktp US*H09CB6913
    Row: 333
  REMOVED (Wells Fargo):
    Date: 2022-02-10
    Description: Pwp Amzn Mktp U Privacycom TN: 8592002 (844) 771-8229
    Row: 359

✓ DUPLICATE FOUND (#85)
  Amount: $-148.99
  Date difference: 1 days
  KEPT (Privacy.com):
    Date: 2022-01-20
    Description: Pwp AMZN Mktp US*MF1P87RE3
    Row: 178
  REMOVED (Wells Fargo):
    Date: 2022-01-21
    Description: Pwp Amzn Mktp U Privacycom TN: 2849432 (844) 771-8229
    Row: 185

✓ DUPLICATE FOUND (#86)
  Amount: $-18.06
  Date difference: 4 days
  KEPT (Privacy.com):
    Date: 2022-01-20
    Description: Pwp DNH*GODADDY.COM
    Row: 179
  REMOVED (Wells Fargo):
    Date: 2022-01-24
    Description: Pwp Dnh*Godaddy Privacycom TN: 6165485 (844) 771-8229
    Row: 212

✓ DUPLICATE FOUND (#87)
  Amount: $-9.00
  Date difference: 3 days
  KEPT (Privacy.com):
    Date: 2022-01-21
    Description: Pwp KRAKEN.IO
    Row: 187
  REMOVED (Wells Fargo):
    Date: 2022-01-24
    Description: Pwp Kraken.Io Privacycom TN: 4772194 (844) 771-8229
    Row: 208

✓ DUPLICATE FOUND (#88)
  Amount: $-52.18
  Date difference: 3 days
  KEPT (Privacy.com):
    Date: 2022-01-21
    Description: Pwp AMAZON.COM*PL0DV8543 AMZN
    Row: 188
  REMOVED (Wells Fargo):
    Date: 2022-01-24
    Description: Pwp Amazon.Com* Privacycom TN: 1762721 (844) 771-8229
    Row: 220

✓ DUPLICATE FOUND (#89)
  Amount: $-10.69
  Date difference: 3 days
  KEPT (Privacy.com):
    Date: 2022-01-21
    Description: Pwp AMZN Mktp US*EU4351YR3
    Row: 189
  REMOVED (Wells Fargo):
    Date: 2022-01-24
    Description: Pwp Amzn Mktp U Privacycom TN: 1018470 (844) 771-8229
    Row: 210

✓ DUPLICATE FOUND (#90)
  Amount: $-13.48
  Date difference: 3 days
  KEPT (Privacy.com):
    Date: 2022-01-21
    Description: Pwp Amazon.com*F427K9YS3
    Row: 190
  REMOVED (Wells Fargo):
    Date: 2022-01-24
    Description: Pwp Amazon.Com* Privacycom TN: 2805957 (844) 771-8229
    Row: 211

✓ DUPLICATE FOUND (#91)
  Amount: $-40.54
  Date difference: 2 days
  KEPT (Privacy.com):
    Date: 2022-01-22
    Description: Pwp AMZN Mktp US*UJ55O34I3
    Row: 192
  REMOVED (Wells Fargo):
    Date: 2022-01-24
    Description: Pwp Amzn Mktp U Privacycom TN: 1462053 (844) 771-8229
    Row: 219

✓ DUPLICATE FOUND (#92)
  Amount: $-3.99
  Date difference: 2 days
  KEPT (Privacy.com):
    Date: 2022-01-22
    Description: Pwp APPLE.COM/BILL
    Row: 193
  REMOVED (Wells Fargo):
    Date: 2022-01-24
    Description: Pwp Apple.Com/B Privacycom TN: 8711261 (844) 771-8229
    Row: 207

✓ DUPLICATE FOUND (#93)
  Amount: $-26.86
  Date difference: 2 days
  KEPT (Privacy.com):
    Date: 2022-01-22
    Description: Pwp AMAZON.COM*BQ1E38QP3 AMZN
    Row: 195
  REMOVED (Wells Fargo):
    Date: 2022-01-24
    Description: Pwp Amazon.Com* Privacycom TN: 6897245 (844) 771-8229
    Row: 217

✓ DUPLICATE FOUND (#94)
  Amount: $-118.52
  Date difference: 4 days
  KEPT (Privacy.com):
    Date: 2022-01-22
    Description: Pwp AMAZON.COM*P51L92M53 AMZN
    Row: 196
  REMOVED (Wells Fargo):
    Date: 2022-01-26
    Description: Pwp Amazon.Com* Privacycom TN: 6239926 (844) 771-8229
    Row: 228

✓ DUPLICATE FOUND (#95)
  Amount: $-27.12
  Date difference: 2 days
  KEPT (Privacy.com):
    Date: 2022-01-22
    Description: Pwp AMAZON.COM*RH0B244N3 AMZN
    Row: 197
  REMOVED (Wells Fargo):
    Date: 2022-01-24
    Description: Pwp Amazon.Com* Privacycom TN: 7609645 (844) 771-8229
    Row: 218

✓ DUPLICATE FOUND (#96)
  Amount: $-22.49
  Date difference: 2 days
  KEPT (Privacy.com):
    Date: 2022-01-22
    Description: Pwp AMAZON.COM*QO6YS5113 AMZN
    Row: 198
  REMOVED (Wells Fargo):
    Date: 2022-01-24
    Description: Pwp Amazon.Com* Privacycom TN: 7832086 (844) 771-8229
    Row: 214

✓ DUPLICATE FOUND (#97)
  Amount: $-19.69
  Date difference: 2 days
  KEPT (Privacy.com):
    Date: 2022-01-22
    Description: Pwp Amazon.com*5H3CX9UF3
    Row: 199
  REMOVED (Wells Fargo):
    Date: 2022-01-24
    Description: Pwp Amazon.Com* Privacycom TN: 3454967 (844) 771-8229
    Row: 213

✓ DUPLICATE FOUND (#98)
  Amount: $-24.10
  Date difference: 2 days
  KEPT (Privacy.com):
    Date: 2022-01-22
    Description: Pwp AMAZON.COM*C117W7C63 AMZN
    Row: 200
  REMOVED (Wells Fargo):
    Date: 2022-01-24
    Description: Pwp Amazon.Com* Privacycom TN: 8937071 (844) 771-8229
    Row: 215

✓ DUPLICATE FOUND (#99)
  Amount: $-90.49
  Date difference: 3 days
  KEPT (Privacy.com):
    Date: 2022-01-23
    Description: Pwp AMZN Mktp US*LM4H993T3
    Row: 201
  REMOVED (Wells Fargo):
    Date: 2022-01-26
    Description: Pwp Amzn Mktp U Privacycom TN: 8214319 (844) 771-8229
    Row: 227

✓ DUPLICATE FOUND (#100)
  Amount: $-44.98
  Date difference: 2 days
  KEPT (Privacy.com):
    Date: 2022-01-30
    Description: Pwp AMAZON.COM*2Q0IT5Y83 AMZN
    Row: 259
  REMOVED (Wells Fargo):
    Date: 2022-02-01
    Description: Pwp Amazon.Com* Privacycom TN: 1154201 (844) 771-8229
    Row: 277

✓ DUPLICATE FOUND (#101)
  Amount: $-112.79
  Date difference: 0 days
  KEPT (Privacy.com):
    Date: 2022-01-24
    Description: Pwp AMZN Mktp US*A33NW4E03
    Row: 223
  REMOVED (Wells Fargo):
    Date: 2022-01-24
    Description: Pwp Amzn Mktp U Privacycom TN: 9553305 (844) 771-8229
    Row: 221

✓ DUPLICATE FOUND (#102)
  Amount: $-8.14
  Date difference: 1 days
  KEPT (Privacy.com):
    Date: 2022-01-24
    Description: Pwp AMZN Mktp US*MQ76D1Z23
    Row: 222
  REMOVED (Wells Fargo):
    Date: 2022-01-25
    Description: Pwp Amzn Mktp U Privacycom TN: 6983250 (844) 771-8229
    Row: 225

✓ DUPLICATE FOUND (#103)
  Amount: $-67.45
  Date difference: 1 days
  KEPT (Privacy.com):
    Date: 2022-01-24
    Description: Pwp AMZN Mktp US*NO59L33T3
    Row: 224
  REMOVED (Wells Fargo):
    Date: 2022-01-25
    Description: Pwp Amzn Mktp U Privacycom TN: 8158756 (844) 771-8229
    Row: 226

✓ DUPLICATE FOUND (#104)
  Amount: $-423.64
  Date difference: 0 days
  KEPT (Privacy.com):
    Date: 2022-01-26
    Description: Pwp AMZN Mktp US*4942V0L63
    Row: 230
  REMOVED (Wells Fargo):
    Date: 2022-01-26
    Description: Pwp Amzn Mktp U Privacycom TN: 8265827 (844) 771-8229
    Row: 229

✓ DUPLICATE FOUND (#105)
  Amount: $-13.99
  Date difference: 1 days
  KEPT (Privacy.com):
    Date: 2022-01-26
    Description: Pwp NETFLIX.COM
    Row: 231
  REMOVED (Wells Fargo):
    Date: 2022-01-27
    Description: Pwp Netflix.Com Privacycom TN: 8579994 (844) 771-8229
    Row: 241

✓ DUPLICATE FOUND (#106)
  Amount: $-15.99
  Date difference: 1 days
  KEPT (Privacy.com):
    Date: 2022-01-26
    Description: Pwp APPLE.COM/BILL
    Row: 232
  REMOVED (Wells Fargo):
    Date: 2022-01-27
    Description: Pwp Apple.Com/B Privacycom TN: 5979076 (844) 771-8229
    Row: 242

✓ DUPLICATE FOUND (#107)
  Amount: $-40.00
  Date difference: 1 days
  KEPT (Privacy.com):
    Date: 2022-08-29
    Description: Pwp GOOGLE *Domains
    Row: 1726
  REMOVED (Wells Fargo):
    Date: 2022-08-30
    Description: Pwp Google *Dom Privacycom TN: 2989706 (844) 771-8229
    Row: 1733

✓ DUPLICATE FOUND (#108)
  Amount: $-6.00
  Date difference: 2 days
  KEPT (Privacy.com):
    Date: 2022-01-26
    Description: Pwp GOOGLE*DOMAINS
    Row: 235
  REMOVED (Wells Fargo):
    Date: 2022-01-28
    Description: Pwp Google*Doma Privacycom TN: 5721115 (844) 771-8229
    Row: 251

✓ DUPLICATE FOUND (#109)
  Amount: $-6.00
  Date difference: 2 days
  KEPT (Privacy.com):
    Date: 2022-02-27
    Description: Pwp GOOGLE*DOMAINS
    Row: 476
  REMOVED (Wells Fargo):
    Date: 2022-03-01
    Description: Pwp Google*Doma Privacycom TN: 3792512 (844) 771-8229
    Row: 504

✓ DUPLICATE FOUND (#110)
  Amount: $-6.00
  Date difference: 2 days
  KEPT (Privacy.com):
    Date: 2022-03-26
    Description: Pwp GOOGLE *Domains
    Row: 650
  REMOVED (Wells Fargo):
    Date: 2022-03-28
    Description: Pwp Google *Dom Privacycom TN: 1464070 (844) 771-8229
    Row: 660

✓ DUPLICATE FOUND (#111)
  Amount: $-6.00
  Date difference: 3 days
  KEPT (Privacy.com):
    Date: 2022-05-06
    Description: Pwp Google Domains
    Row: 961
  REMOVED (Wells Fargo):
    Date: 2022-05-09
    Description: Pwp Google Doma Privacycom TN: 1084273 (844) 771-8229
    Row: 976

✓ DUPLICATE FOUND (#112)
  Amount: $-47.84
  Date difference: 1 days
  KEPT (Privacy.com):
    Date: 2022-01-27
    Description: Pwp Amazon.com*D72146VA3
    Row: 244
  REMOVED (Wells Fargo):
    Date: 2022-01-28
    Description: Pwp Amazon.Com* Privacycom TN: 6894412 (844) 771-8229
    Row: 252

✓ DUPLICATE FOUND (#113)
  Amount: $-8.00
  Date difference: 3 days
  KEPT (Privacy.com):
    Date: 2022-01-28
    Description: Pwp SLACK T0265NE2YH3
    Row: 253
  REMOVED (Wells Fargo):
    Date: 2022-01-31
    Description: Pwp Slack T0265 Privacycom TN: 8678453 (844) 771-8229
    Row: 265

✓ DUPLICATE FOUND (#114)
  Amount: $-8.00
  Date difference: 1 days
  KEPT (Privacy.com):
    Date: 2022-03-01
    Description: Pwp SLACK T0265NE2YH3
    Row: 508
  REMOVED (Wells Fargo):
    Date: 2022-03-02
    Description: Pwp Slack T0265 Privacycom TN: 2365926 (844) 771-8229
    Row: 515

✓ DUPLICATE FOUND (#115)
  Amount: $-8.00
  Date difference: 1 days
  KEPT (Privacy.com):
    Date: 2022-06-28
    Description: Pwp SLACK T0265NE2YH3
    Row: 1324
  REMOVED (Wells Fargo):
    Date: 2022-06-29
    Description: Pwp Slack T0265 Privacycom TN: 7261571 (844) 771-8229
    Row: 1329

✓ DUPLICATE FOUND (#116)
  Amount: $-8.00
  Date difference: 1 days
  KEPT (Privacy.com):
    Date: 2022-07-28
    Description: Pwp SLACK T0265NE2YH3
    Row: 1520
  REMOVED (Wells Fargo):
    Date: 2022-07-29
    Description: Pwp Slack T0265 Privacycom TN: 8765053 (844) 771-8229
    Row: 1522

✓ DUPLICATE FOUND (#117)
  Amount: $-36.00
  Date difference: 3 days
  KEPT (Privacy.com):
    Date: 2022-01-28
    Description: Pwp GITHUB
    Row: 254
  REMOVED (Wells Fargo):
    Date: 2022-01-31
    Description: Pwp Github Privacycom TN: 6991907 (844) 771-8229
    Row: 267

✓ DUPLICATE FOUND (#118)
  Amount: $-36.00
  Date difference: 2 days
  KEPT (Privacy.com):
    Date: 2022-07-30
    Description: Pwp GOOGLE*DOMAINS
    Row: 1532
  REMOVED (Wells Fargo):
    Date: 2022-08-01
    Description: Pwp Google*Doma Privacycom TN: 4316091 (844) 771-8229
    Row: 1553

✓ DUPLICATE FOUND (#119)
  Amount: $-14.95
  Date difference: 2 days
  KEPT (Privacy.com):
    Date: 2022-01-29
    Description: Pwp Audible*R03ON68S3
    Row: 255
  REMOVED (Wells Fargo):
    Date: 2022-01-31
    Description: Pwp Audible*R03 Privacycom TN: 5789564 (844) 771-8229
    Row: 266

✓ DUPLICATE FOUND (#120)
  Amount: $-124.66
  Date difference: 1 days
  KEPT (Privacy.com):
    Date: 2022-01-30
    Description: Pwp AMZN Mktp US*5O04V2ZV3
    Row: 257
  REMOVED (Wells Fargo):
    Date: 2022-01-31
    Description: Pwp Amzn Mktp U Privacycom TN: 3655499 (844) 771-8229
    Row: 270

✓ DUPLICATE FOUND (#121)
  Amount: $-67.52
  Date difference: 1 days
  KEPT (Privacy.com):
    Date: 2022-01-30
    Description: Pwp AMZN Mktp US*OB0123KK3
    Row: 258
  REMOVED (Wells Fargo):
    Date: 2022-01-31
    Description: Pwp Amzn Mktp U Privacycom TN: 9895449 (844) 771-8229
    Row: 269

✓ DUPLICATE FOUND (#122)
  Amount: $-41.80
  Date difference: 2 days
  KEPT (Privacy.com):
    Date: 2022-01-30
    Description: Pwp AMZN Mktp US*Z12TW3RS3
    Row: 260
  REMOVED (Wells Fargo):
    Date: 2022-02-01
    Description: Pwp Amzn Mktp U Privacycom TN: 7797108 (844) 771-8229
    Row: 276

✓ DUPLICATE FOUND (#123)
  Amount: $-19.29
  Date difference: 2 days
  KEPT (Privacy.com):
    Date: 2022-01-31
    Description: Pwp AMZN Mktp US*PM18G9E73
    Row: 272
  REMOVED (Wells Fargo):
    Date: 2022-02-02
    Description: Pwp Amzn Mktp U Privacycom TN: 3579224 (844) 771-8229
    Row: 281

✓ DUPLICATE FOUND (#124)
  Amount: $-19.29
  Date difference: 3 days
  KEPT (Privacy.com):
    Date: 2022-05-08
    Description: Pwp AMAZON.COM*136D29GD0 AMZN
    Row: 965
  REMOVED (Wells Fargo):
    Date: 2022-05-11
    Description: Pwp Amazon.Com* Privacycom TN: 1742091 (844) 771-8229
    Row: 992

✓ DUPLICATE FOUND (#125)
  Amount: $-19.29
  Date difference: 2 days
  KEPT (Privacy.com):
    Date: 2022-06-25
    Description: Pwp AMZN Mktp US*MX4CP4IY3
    Row: 1296
  REMOVED (Wells Fargo):
    Date: 2022-06-27
    Description: Pwp Amzn Mktp U Privacycom TN: 7292819 (844) 771-8229
    Row: 1307

✓ DUPLICATE FOUND (#126)
  Amount: $-107.20
  Date difference: 3 days
  KEPT (Privacy.com):
    Date: 2022-01-31
    Description: Pwp AMZN Mktp US*OB58U3083
    Row: 273
  REMOVED (Wells Fargo):
    Date: 2022-02-03
    Description: Pwp Amzn Mktp U Privacycom TN: 2671145 (844) 771-8229
    Row: 284

✓ DUPLICATE FOUND (#127)
  Amount: $-10.48
  Date difference: 1 days
  KEPT (Privacy.com):
    Date: 2022-02-01
    Description: Pwp Amazon.com*A503O4RN3
    Row: 278
  REMOVED (Wells Fargo):
    Date: 2022-02-02
    Description: Pwp Amazon.Com* Privacycom TN: 9452811 (844) 771-8229
    Row: 280

✓ DUPLICATE FOUND (#128)
  Amount: $-37.60
  Date difference: 1 days
  KEPT (Privacy.com):
    Date: 2022-02-03
    Description: Pwp PINATA CLOUD
    Row: 285
  REMOVED (Wells Fargo):
    Date: 2022-02-04
    Description: Pwp Pinata Clou Privacycom TN: 1736746 (844) 771-8229
    Row: 293

✓ DUPLICATE FOUND (#129)
  Amount: $-49.28
  Date difference: 2 days
  KEPT (Privacy.com):
    Date: 2022-02-05
    Description: Pwp AMZN Mktp US*0Y4CG4UN3
    Row: 295
  REMOVED (Wells Fargo):
    Date: 2022-02-07
    Description: Pwp Amzn Mktp U Privacycom TN: 3285650 (844) 771-8229
    Row: 322

✓ DUPLICATE FOUND (#130)
  Amount: $-327.99
  Date difference: 2 days
  KEPT (Privacy.com):
    Date: 2022-02-05
    Description: Pwp AMZN Mktp US*JZ6W21B93
    Row: 296
  REMOVED (Wells Fargo):
    Date: 2022-02-07
    Description: Pwp Amzn Mktp U Privacycom TN: 2591198 (844) 771-8229
    Row: 326

✓ DUPLICATE FOUND (#131)
  Amount: $-30.28
  Date difference: 2 days
  KEPT (Privacy.com):
    Date: 2022-02-05
    Description: Pwp AMZN Mktp US*N328S1963
    Row: 297
  REMOVED (Wells Fargo):
    Date: 2022-02-07
    Description: Pwp Amzn Mktp U Privacycom TN: 1686640 (844) 771-8229
    Row: 320

✓ DUPLICATE FOUND (#132)
  Amount: $-13.07
  Date difference: 2 days
  KEPT (Privacy.com):
    Date: 2022-02-05
    Description: Pwp Amazon.com*VV7SA6S83
    Row: 298
  REMOVED (Wells Fargo):
    Date: 2022-02-07
    Description: Pwp Amazon.Com* Privacycom TN: 2169195 (844) 771-8229
    Row: 316

✓ DUPLICATE FOUND (#133)
  Amount: $-11.25
  Date difference: 3 days
  KEPT (Privacy.com):
    Date: 2022-02-05
    Description: Pwp AMZN Mktp US*WB2MC31D3
    Row: 299
  REMOVED (Wells Fargo):
    Date: 2022-02-08
    Description: Pwp Amzn Mktp U Privacycom TN: 9482174 (844) 771-8229
    Row: 329

✓ DUPLICATE FOUND (#134)
  Amount: $-48.25
  Date difference: 2 days
  KEPT (Privacy.com):
    Date: 2022-02-05
    Description: Pwp Amazon.com*Z062C2SX3
    Row: 300
  REMOVED (Wells Fargo):
    Date: 2022-02-07
    Description: Pwp Amazon.Com* Privacycom TN: 1308606 (844) 771-8229
    Row: 321

✓ DUPLICATE FOUND (#135)
  Amount: $-97.48
  Date difference: 2 days
  KEPT (Privacy.com):
    Date: 2022-02-05
    Description: Pwp AMZN Mktp US*R882M8QD3
    Row: 301
  REMOVED (Wells Fargo):
    Date: 2022-02-07
    Description: Pwp Amzn Mktp U Privacycom TN: 5829595 (844) 771-8229
    Row: 324

✓ DUPLICATE FOUND (#136)
  Amount: $-14.00
  Date difference: 2 days
  KEPT (Privacy.com):
    Date: 2022-02-05
    Description: Pwp Amazon.com*5S6F71AU3
    Row: 302
  REMOVED (Wells Fargo):
    Date: 2022-02-07
    Description: Pwp Amazon.Com* Privacycom TN: 1641550 (844) 771-8229
    Row: 317

✓ DUPLICATE FOUND (#137)
  Amount: $-21.44
  Date difference: 2 days
  KEPT (Privacy.com):
    Date: 2022-02-05
    Description: Pwp AMZN Mktp US*SZ2ED4523
    Row: 303
  REMOVED (Wells Fargo):
    Date: 2022-02-07
    Description: Pwp Amzn Mktp U Privacycom TN: 8723136 (844) 771-8229
    Row: 319

✓ DUPLICATE FOUND (#138)
  Amount: $-21.44
  Date difference: 2 days
  KEPT (Privacy.com):
    Date: 2022-06-07
    Description: Pwp AMAZON.COM*1U15B6Z33 AMZN
    Row: 1164
  REMOVED (Wells Fargo):
    Date: 2022-06-09
    Description: Pwp Amazon.Com* Privacycom TN: 9759774 (844) 771-8229
    Row: 1182

✓ DUPLICATE FOUND (#139)
  Amount: $-21.44
  Date difference: 4 days
  KEPT (Privacy.com):
    Date: 2022-07-07
    Description: Pwp AMZN Mktp US*IY3QY3I83
    Row: 1399
  REMOVED (Wells Fargo):
    Date: 2022-07-11
    Description: Pwp Amzn Mktp U Privacycom TN: 3225448 (844) 771-8229
    Row: 1428

✓ DUPLICATE FOUND (#140)
  Amount: $-21.44
  Date difference: 4 days
  KEPT (Privacy.com):
    Date: 2022-08-18
    Description: Pwp AMZN Mktp US*3O1VG2353
    Row: 1658
  REMOVED (Wells Fargo):
    Date: 2022-08-22
    Description: Pwp Amzn Mktp U Privacycom TN: 8976059 (844) 771-8229
    Row: 1676

✓ DUPLICATE FOUND (#141)
  Amount: $-21.44
  Date difference: 2 days
  KEPT (Privacy.com):
    Date: 2022-11-19
    Description: Pwp AMZN Mktp US*HI07X7KB1
    Row: 2334
  REMOVED (Wells Fargo):
    Date: 2022-11-21
    Description: Pwp Amzn Mktp U Privacycom TN: 6053887 (844) 771-8229
    Row: 2349

✓ DUPLICATE FOUND (#142)
  Amount: $-21.44
  Date difference: 2 days
  KEPT (Privacy.com):
    Date: 2022-11-28
    Description: Pwp AMZN Mktp US*WK2AP0763
    Row: 2415
  REMOVED (Wells Fargo):
    Date: 2022-11-30
    Description: Pwp Amzn Mktp U Privacycom TN: 1319706 (844) 771-8229
    Row: 2429

✓ DUPLICATE FOUND (#143)
  Amount: $-150.12
  Date difference: 2 days
  KEPT (Privacy.com):
    Date: 2022-02-05
    Description: Pwp AMZN Mktp US*I22HY9PU3
    Row: 304
  REMOVED (Wells Fargo):
    Date: 2022-02-07
    Description: Pwp Amzn Mktp U Privacycom TN: 9251053 (844) 771-8229
    Row: 325

✓ DUPLICATE FOUND (#144)
  Amount: $-49.32
  Date difference: 2 days
  KEPT (Privacy.com):
    Date: 2022-02-06
    Description: Pwp AMZN Mktp US*AJ7XG28E3
    Row: 305
  REMOVED (Wells Fargo):
    Date: 2022-02-08
    Description: Pwp Amzn Mktp U Privacycom TN: 7282117 (844) 771-8229
    Row: 330

✓ DUPLICATE FOUND (#145)
  Amount: $-9.64
  Date difference: 2 days
  KEPT (Privacy.com):
    Date: 2022-02-08
    Description: Pwp AMZN Mktp US*JY5MF4Y33
    Row: 331
  REMOVED (Wells Fargo):
    Date: 2022-02-10
    Description: Pwp Amzn Mktp U Privacycom TN: 7210355 (844) 771-8229
    Row: 354

✓ DUPLICATE FOUND (#146)
  Amount: $-42.67
  Date difference: 2 days
  KEPT (Privacy.com):
    Date: 2022-02-08
    Description: Pwp AMZN Mktp US*DJ3E79YU3
    Row: 332
  REMOVED (Wells Fargo):
    Date: 2022-02-10
    Description: Pwp Amzn Mktp U Privacycom TN: 3114544 (844) 771-8229
    Row: 358

✓ DUPLICATE FOUND (#147)
  Amount: $-12.74
  Date difference: 2 days
  KEPT (Privacy.com):
    Date: 2022-02-08
    Description: Pwp AMZN Mktp US*ZQ9F83P33
    Row: 334
  REMOVED (Wells Fargo):
    Date: 2022-02-10
    Description: Pwp Amzn Mktp U Privacycom TN: 1757190 (844) 771-8229
    Row: 355

✓ DUPLICATE FOUND (#148)
  Amount: $-29.99
  Date difference: 2 days
  KEPT (Privacy.com):
    Date: 2022-07-31
    Description: Pwp UDEMY SUBSCRIPTION
    Row: 1538
  REMOVED (Wells Fargo):
    Date: 2022-08-02
    Description: Pwp Udemy Subsc Privacycom TN: 9177244 (844) 771-8229
    Row: 1560

✓ DUPLICATE FOUND (#149)
  Amount: $-29.99
  Date difference: 3 days
  KEPT (Privacy.com):
    Date: 2022-10-21
    Description: Pwp DNH*GODADDY.COM
    Row: 2134
  REMOVED (Wells Fargo):
    Date: 2022-10-24
    Description: Pwp Dnh*Godaddy Privacycom TN: 7292261 (844) 771-8229
    Row: 2150

✓ DUPLICATE FOUND (#150)
  Amount: $-25.71
  Date difference: 1 days
  KEPT (Privacy.com):
    Date: 2022-02-09
    Description: Pwp Amazon.com*DG7AS8BD3
    Row: 344
  REMOVED (Wells Fargo):
    Date: 2022-02-10
    Description: Pwp Amazon.Com* Privacycom TN: 6816036 (844) 771-8229
    Row: 356

✓ DUPLICATE FOUND (#151)
  Amount: $-29.55
  Date difference: 1 days
  KEPT (Privacy.com):
    Date: 2022-02-09
    Description: Pwp AMZN Mktp US*PK5B004I3
    Row: 345
  REMOVED (Wells Fargo):
    Date: 2022-02-10
    Description: Pwp Amzn Mktp U Privacycom TN: 9120336 (844) 771-8229
    Row: 357

✓ DUPLICATE FOUND (#152)
  Amount: $-57.90
  Date difference: 1 days
  KEPT (Privacy.com):
    Date: 2022-02-10
    Description: Pwp AMZN MKTP US*FI0N90883 AM
    Row: 361
  REMOVED (Wells Fargo):
    Date: 2022-02-11
    Description: Pwp Amzn Mktp U Privacycom TN: 8326859 (844) 771-8229
    Row: 365

✓ DUPLICATE FOUND (#153)
  Amount: $-59.01
  Date difference: 4 days
  KEPT (Privacy.com):
    Date: 2022-02-11
    Description: Pwp AMZN MKTP US*MX5981ZA3 AM
    Row: 366
  REMOVED (Wells Fargo):
    Date: 2022-02-15
    Description: Pwp Amzn Mktp U Privacycom TN: 2757301 (844) 771-8229
    Row: 395

✓ DUPLICATE FOUND (#154)
  Amount: $-536.20
  Date difference: 4 days
  KEPT (Privacy.com):
    Date: 2022-02-11
    Description: Pwp AMZN Mktp US*DH4TH8ED3
    Row: 367
  REMOVED (Wells Fargo):
    Date: 2022-02-15
    Description: Pwp Amzn Mktp U Privacycom TN: 8078249 (844) 771-8229
    Row: 399

✓ DUPLICATE FOUND (#155)
  Amount: $-226.24
  Date difference: 2 days
  KEPT (Privacy.com):
    Date: 2022-02-13
    Description: Pwp AMZN Mktp US*JN25R3PL3
    Row: 368
  REMOVED (Wells Fargo):
    Date: 2022-02-15
    Description: Pwp Amzn Mktp U Privacycom TN: 1169045 (844) 771-8229
    Row: 397

✓ DUPLICATE FOUND (#156)
  Amount: $-61.12
  Date difference: 2 days
  KEPT (Privacy.com):
    Date: 2022-02-13
    Description: Pwp AMZN Mktp US*AL7DU02V3
    Row: 369
  REMOVED (Wells Fargo):
    Date: 2022-02-15
    Description: Pwp Amzn Mktp U Privacycom TN: 6645485 (844) 771-8229
    Row: 396

✓ DUPLICATE FOUND (#157)
  Amount: $-100.00
  Date difference: 2 days
  KEPT (Privacy.com):
    Date: 2022-02-22
    Description: Pwp GOOGLE *CLOUD Q47XTP
    Row: 452
  REMOVED (Wells Fargo):
    Date: 2022-02-24
    Description: Pwp Google *Clo Privacycom TN: 8726523 (844) 771-8229
    Row: 459

✓ DUPLICATE FOUND (#158)
  Amount: $-100.00
  Date difference: 1 days
  KEPT (Privacy.com):
    Date: 2022-04-24
    Description: Pwp Twitter Online Ads
    Row: 858
  REMOVED (Wells Fargo):
    Date: 2022-04-25
    Description: Pwp Twitter Onl Privacycom TN: 3033080 (844) 771-8229
    Row: 872

✓ DUPLICATE FOUND (#159)
  Amount: $-278.84
  Date difference: 1 days
  KEPT (Privacy.com):
    Date: 2022-02-14
    Description: Pwp AMZN Mktp US*7S92337K3
    Row: 388
  REMOVED (Wells Fargo):
    Date: 2022-02-15
    Description: Pwp Amzn Mktp U Privacycom TN: 4258273 (844) 771-8229
    Row: 398

✓ DUPLICATE FOUND (#160)
  Amount: $-249.00
  Date difference: 1 days
  KEPT (Privacy.com):
    Date: 2022-02-15
    Description: Pwp TALENT LIST ON CJL.IST
    Row: 400
  REMOVED (Wells Fargo):
    Date: 2022-02-16
    Description: Pwp Talent List Privacycom TN: 3888888 (844) 771-8229
    Row: 408

✓ DUPLICATE FOUND (#161)
  Amount: $-66.16
  Date difference: 1 days
  KEPT (Privacy.com):
    Date: 2022-02-16
    Description: Pwp Amazon.com*Q04EA7V73
    Row: 409
  REMOVED (Wells Fargo):
    Date: 2022-02-17
    Description: Pwp Amazon.Com* Privacycom TN: 1167690 (844) 771-8229
    Row: 415

✓ DUPLICATE FOUND (#162)
  Amount: $-96.87
  Date difference: 5 days
  KEPT (Privacy.com):
    Date: 2022-02-17
    Description: Pwp AMZN Mktp US*U62PJ9D13
    Row: 417
  REMOVED (Wells Fargo):
    Date: 2022-02-22
    Description: Pwp Amzn Mktp U Privacycom TN: 1324280 (844) 771-8229
    Row: 439

✓ DUPLICATE FOUND (#163)
  Amount: $-60.70
  Date difference: 3 days
  KEPT (Privacy.com):
    Date: 2022-02-19
    Description: Pwp Amazon.com*EF1X10263
    Row: 420
  REMOVED (Wells Fargo):
    Date: 2022-02-22
    Description: Pwp Amazon.Com* Privacycom TN: 8659526 (844) 771-8229
    Row: 438

✓ DUPLICATE FOUND (#164)
  Amount: $-60.70
  Date difference: 4 days
  KEPT (Privacy.com):
    Date: 2022-07-21
    Description: Pwp Amazon.com*TD47N3T93
    Row: 1492
  REMOVED (Wells Fargo):
    Date: 2022-07-25
    Description: Pwp Amazon.Com* Privacycom TN: 7598399 (844) 771-8229
    Row: 1502

✓ DUPLICATE FOUND (#165)
  Amount: $-23.56
  Date difference: 3 days
  KEPT (Privacy.com):
    Date: 2022-02-19
    Description: Pwp AMZN Mktp US*A50SV5V23
    Row: 421
  REMOVED (Wells Fargo):
    Date: 2022-02-22
    Description: Pwp Amzn Mktp U Privacycom TN: 1195437 (844) 771-8229
    Row: 437

✓ DUPLICATE FOUND (#166)
  Amount: $-13.93
  Date difference: 3 days
  KEPT (Privacy.com):
    Date: 2022-02-19
    Description: Pwp AMZN MKTP US*UU5RB6WF3 AM
    Row: 422
  REMOVED (Wells Fargo):
    Date: 2022-02-22
    Description: Pwp Amzn Mktp U Privacycom TN: 8823516 (844) 771-8229
    Row: 436

✓ DUPLICATE FOUND (#167)
  Amount: $-100.29
  Date difference: 2 days
  KEPT (Privacy.com):
    Date: 2022-02-22
    Description: Pwp AMZN Mktp US*1I1RM8ZW0
    Row: 451
  REMOVED (Wells Fargo):
    Date: 2022-02-24
    Description: Pwp Amzn Mktp U Privacycom TN: 5991623 (844) 771-8229
    Row: 460

✓ DUPLICATE FOUND (#168)
  Amount: $-93.27
  Date difference: 1 days
  KEPT (Privacy.com):
    Date: 2022-02-24
    Description: Pwp AMZN Mktp US*1B95B77B2
    Row: 462
  REMOVED (Wells Fargo):
    Date: 2022-02-25
    Description: Pwp Amzn Mktp U Privacycom TN: 6895411 (844) 771-8229
    Row: 470

✓ DUPLICATE FOUND (#169)
  Amount: $-33.23
  Date difference: 3 days
  KEPT (Privacy.com):
    Date: 2022-02-25
    Description: Pwp GOOGLE*DOMAINS
    Row: 471
  REMOVED (Wells Fargo):
    Date: 2022-02-28
    Description: Pwp Google*Doma Privacycom TN: 9334427 (844) 771-8229
    Row: 493

✓ DUPLICATE FOUND (#170)
  Amount: $-1074.00
  Date difference: 3 days
  KEPT (Privacy.com):
    Date: 2022-02-25
    Description: Pwp GOOGLE*DOMAINS
    Row: 472
  REMOVED (Wells Fargo):
    Date: 2022-02-28
    Description: Pwp Google*Doma Privacycom TN: 9869122 (844) 771-8229
    Row: 496

✓ DUPLICATE FOUND (#171)
  Amount: $-128.03
  Date difference: 3 days
  KEPT (Privacy.com):
    Date: 2022-02-25
    Description: Pwp Amazon.com*1I97219H1
    Row: 473
  REMOVED (Wells Fargo):
    Date: 2022-02-28
    Description: Pwp Amazon.Com* Privacycom TN: 6323613 (844) 771-8229
    Row: 494

✓ DUPLICATE FOUND (#172)
  Amount: $-24.32
  Date difference: 2 days
  KEPT (Privacy.com):
    Date: 2022-02-26
    Description: Pwp Amazon.com*1I1M28LC2
    Row: 475
  REMOVED (Wells Fargo):
    Date: 2022-02-28
    Description: Pwp Amazon.Com* Privacycom TN: 2651815 (844) 771-8229
    Row: 492

✓ DUPLICATE FOUND (#173)
  Amount: $-164.52
  Date difference: 1 days
  KEPT (Privacy.com):
    Date: 2022-02-28
    Description: Pwp Amazon.com*1W3UY93W1
    Row: 499
  REMOVED (Wells Fargo):
    Date: 2022-03-01
    Description: Pwp Amazon.Com* Privacycom TN: 8936523 (844) 771-8229
    Row: 505

✓ DUPLICATE FOUND (#174)
  Amount: $-31.05
  Date difference: 3 days
  KEPT (Privacy.com):
    Date: 2022-02-28
    Description: Pwp AMZN Mktp US*1W3YI6XJ1
    Row: 500
  REMOVED (Wells Fargo):
    Date: 2022-03-03
    Description: Pwp Amzn Mktp U Privacycom TN: 6436560 (844) 771-8229
    Row: 524

✓ DUPLICATE FOUND (#175)
  Amount: $-64.11
  Date difference: 2 days
  KEPT (Privacy.com):
    Date: 2022-03-01
    Description: Pwp AMAZON.COM*1I3V75HG2 AMZN
    Row: 509
  REMOVED (Wells Fargo):
    Date: 2022-03-03
    Description: Pwp Amazon.Com* Privacycom TN: 3339342 (844) 771-8229
    Row: 526

✓ DUPLICATE FOUND (#176)
  Amount: $-49.00
  Date difference: 2 days
  KEPT (Privacy.com):
    Date: 2022-03-01
    Description: Pwp CHAINSTACK
    Row: 510
  REMOVED (Wells Fargo):
    Date: 2022-03-03
    Description: Pwp Chainstack Privacycom TN: 7579096 (844) 771-8229
    Row: 525

✓ DUPLICATE FOUND (#177)
  Amount: $-49.00
  Date difference: 3 days
  KEPT (Privacy.com):
    Date: 2022-04-01
    Description: Pwp CHAINSTACK
    Row: 695
  REMOVED (Wells Fargo):
    Date: 2022-04-04
    Description: Pwp Chainstack Privacycom TN: 2330646 (844) 771-8229
    Row: 709

✓ DUPLICATE FOUND (#178)
  Amount: $-49.00
  Date difference: 2 days
  KEPT (Privacy.com):
    Date: 2022-05-01
    Description: Pwp CHAINSTACK
    Row: 919
  REMOVED (Wells Fargo):
    Date: 2022-05-03
    Description: Pwp Chainstack Privacycom TN: 1267283 (844) 771-8229
    Row: 938

✓ DUPLICATE FOUND (#179)
  Amount: $-49.00
  Date difference: 2 days
  KEPT (Privacy.com):
    Date: 2022-06-01
    Description: Pwp CHAINSTACK
    Row: 1135
  REMOVED (Wells Fargo):
    Date: 2022-06-03
    Description: Pwp Chainstack Privacycom TN: 4914107 (844) 771-8229
    Row: 1144

✓ DUPLICATE FOUND (#180)
  Amount: $-49.00
  Date difference: 1 days
  KEPT (Privacy.com):
    Date: 2022-12-01
    Description: Pwp QUICKNODE API
    Row: 2442
  REMOVED (Wells Fargo):
    Date: 2022-12-02
    Description: Pwp Quicknode A Privacycom TN: 1740832 (844) 771-8229
    Row: 2446

✓ DUPLICATE FOUND (#181)
  Amount: $-49.00
  Date difference: 4 days
  KEPT (Privacy.com):
    Date: 2022-12-23
    Description: Pwp QUICKNODE API
    Row: 2667
  REMOVED (Wells Fargo):
    Date: 2022-12-27
    Description: Pwp Quicknode A Privacycom TN: 4042941 (844) 771-8229
    Row: 2687

✓ DUPLICATE FOUND (#182)
  Amount: $-10.00
  Date difference: 2 days
  KEPT (Privacy.com):
    Date: 2022-03-01
    Description: Pwp Amazon Tips*1W9YE24Q0
    Row: 511
  REMOVED (Wells Fargo):
    Date: 2022-03-03
    Description: Pwp Amazon Tips Privacycom TN: 4199377 (844) 771-8229
    Row: 523

✓ DUPLICATE FOUND (#183)
  Amount: $-10.00
  Date difference: 2 days
  KEPT (Privacy.com):
    Date: 2022-03-15
    Description: Pwp Amazon Tips*1N6BJ0Z71
    Row: 577
  REMOVED (Wells Fargo):
    Date: 2022-03-17
    Description: Pwp Amazon Tips Privacycom TN: 1048251 (844) 771-8229
    Row: 591

✓ DUPLICATE FOUND (#184)
  Amount: $-10.00
  Date difference: 1 days
  KEPT (Privacy.com):
    Date: 2022-04-17
    Description: Pwp Amazon Tips*1O2KX1VJ1
    Row: 802
  REMOVED (Wells Fargo):
    Date: 2022-04-18
    Description: Pwp Amazon Tips Privacycom TN: 1599339 (844) 771-8229
    Row: 820

✓ DUPLICATE FOUND (#185)
  Amount: $-10.00
  Date difference: 2 days
  KEPT (Privacy.com):
    Date: 2022-05-07
    Description: Pwp Amazon Tips*1L6RF6JA1
    Row: 963
  REMOVED (Wells Fargo):
    Date: 2022-05-09
    Description: Pwp Amazon Tips Privacycom TN: 4213661 (844) 771-8229
    Row: 978

✓ DUPLICATE FOUND (#186)
  Amount: $-10.00
  Date difference: 2 days
  KEPT (Privacy.com):
    Date: 2022-05-16
    Description: Pwp Blink
    Row: 1021
  REMOVED (Wells Fargo):
    Date: 2022-05-18
    Description: Pwp Blink Privacycom TN: 6792159 (844) 771-8229
    Row: 1038

✓ DUPLICATE FOUND (#187)
  Amount: $-10.00
  Date difference: 2 days
  KEPT (Privacy.com):
    Date: 2022-05-30
    Description: Pwp Amazon Tips*1X07N03P2
    Row: 1108
  REMOVED (Wells Fargo):
    Date: 2022-06-01
    Description: Pwp Amazon Tips Privacycom TN: 7891583 (844) 771-8229
    Row: 1133

✓ DUPLICATE FOUND (#188)
  Amount: $-10.00
  Date difference: 5 days
  KEPT (Privacy.com):
    Date: 2022-06-16
    Description: Pwp Blink
    Row: 1245
  REMOVED (Wells Fargo):
    Date: 2022-06-21
    Description: Pwp Blink Privacycom TN: 7098161 (844) 771-8229
    Row: 1273

✓ DUPLICATE FOUND (#189)
  Amount: $-10.00
  Date difference: 4 days
  KEPT (Privacy.com):
    Date: 2022-07-01
    Description: Pwp Amazon Tips*PY42A08I3
    Row: 1349
  REMOVED (Wells Fargo):
    Date: 2022-07-05
    Description: Pwp Amazon Tips Privacycom TN: 4793009 (844) 771-8229
    Row: 1369

✓ DUPLICATE FOUND (#190)
  Amount: $-10.00
  Date difference: 3 days
  KEPT (Privacy.com):
    Date: 2022-08-05
    Description: Pwp Amazon Tips*SW7OA3ZT3
    Row: 1587
  REMOVED (Wells Fargo):
    Date: 2022-08-08
    Description: Pwp Amazon Tips Privacycom TN: 1000269 (844) 771-8229
    Row: 1595

✓ DUPLICATE FOUND (#191)
  Amount: $-10.00
  Date difference: 2 days
  KEPT (Privacy.com):
    Date: 2022-09-04
    Description: Pwp Amazon Tips*D93CU74H3
    Row: 1758
  REMOVED (Wells Fargo):
    Date: 2022-09-06
    Description: Pwp Amazon Tips Privacycom TN: 7564642 (844) 771-8229
    Row: 1780

✓ DUPLICATE FOUND (#192)
  Amount: $-10.00
  Date difference: 3 days
  KEPT (Privacy.com):
    Date: 2022-09-16
    Description: Pwp Blink
    Row: 1874
  REMOVED (Wells Fargo):
    Date: 2022-09-19
    Description: Pwp Blink Privacycom TN: 1361708 (844) 771-8229
    Row: 1889

✓ DUPLICATE FOUND (#193)
  Amount: $-10.00
  Date difference: 3 days
  KEPT (Privacy.com):
    Date: 2022-09-30
    Description: Pwp GITHUB
    Row: 1936
  REMOVED (Wells Fargo):
    Date: 2022-10-03
    Description: Pwp Github Privacycom TN: 1444133 (844) 771-8229
    Row: 1953

✓ DUPLICATE FOUND (#194)
  Amount: $-10.00
  Date difference: 2 days
  KEPT (Privacy.com):
    Date: 2022-10-16
    Description: Pwp Blink
    Row: 2094
  REMOVED (Wells Fargo):
    Date: 2022-10-18
    Description: Pwp Blink Privacycom TN: 1670399 (844) 771-8229
    Row: 2115

✓ DUPLICATE FOUND (#195)
  Amount: $-10.00
  Date difference: 1 days
  KEPT (Privacy.com):
    Date: 2022-10-31
    Description: Pwp GITHUB
    Row: 2201
  REMOVED (Wells Fargo):
    Date: 2022-11-01
    Description: Pwp Github Privacycom TN: 1205808 (844) 771-8229
    Row: 2206

✓ DUPLICATE FOUND (#196)
  Amount: $-10.00
  Date difference: 2 days
  KEPT (Privacy.com):
    Date: 2022-11-16
    Description: Pwp Blink
    Row: 2309
  REMOVED (Wells Fargo):
    Date: 2022-11-18
    Description: Pwp Blink Privacycom TN: 3498671 (844) 771-8229
    Row: 2324

✓ DUPLICATE FOUND (#197)
  Amount: $-10.00
  Date difference: 1 days
  KEPT (Privacy.com):
    Date: 2022-11-30
    Description: Pwp GITHUB
    Row: 2432
  REMOVED (Wells Fargo):
    Date: 2022-12-01
    Description: Pwp Github Privacycom TN: 1270032 (844) 771-8229
    Row: 2437

✓ DUPLICATE FOUND (#198)
  Amount: $-10.00
  Date difference: 3 days
  KEPT (Privacy.com):
    Date: 2022-12-16
    Description: Pwp Blink
    Row: 2584
  REMOVED (Wells Fargo):
    Date: 2022-12-19
    Description: Pwp Blink Privacycom TN: 9301989 (844) 771-8229
    Row: 2612

✓ DUPLICATE FOUND (#199)
  Amount: $-225.21
  Date difference: 1 days
  KEPT (Privacy.com):
    Date: 2022-03-01
    Description: Pwp AMAZON.COM*1W53E9P61 AMZN
    Row: 512
  REMOVED (Wells Fargo):
    Date: 2022-03-02
    Description: Pwp Amazon.Com* Privacycom TN: 9069649 (844) 771-8229
    Row: 516

✓ DUPLICATE FOUND (#200)
  Amount: $-84.03
  Date difference: 1 days
  KEPT (Privacy.com):
    Date: 2022-03-02
    Description: Pwp AMZN Mktp US*1W6MM5GE1
    Row: 517
  REMOVED (Wells Fargo):
    Date: 2022-03-03
    Description: Pwp Amzn Mktp U Privacycom TN: 8101539 (844) 771-8229
    Row: 527

✓ DUPLICATE FOUND (#201)
  Amount: $-56.79
  Date difference: 2 days
  KEPT (Privacy.com):
    Date: 2022-03-06
    Description: Pwp AMZN MKTP US*1W4PQ6DI0 AM
    Row: 529
  REMOVED (Wells Fargo):
    Date: 2022-03-08
    Description: Pwp Amzn Mktp U Privacycom TN: 2031172 (844) 771-8229
    Row: 542

✓ DUPLICATE FOUND (#202)
  Amount: $-100.01
  Date difference: 2 days
  KEPT (Privacy.com):
    Date: 2022-03-08
    Description: Pwp Amazon.com*1W2LO3Y10
    Row: 543
  REMOVED (Wells Fargo):
    Date: 2022-03-10
    Description: Pwp Amazon.Com* Privacycom TN: 8040779 (844) 771-8229
    Row: 553

✓ DUPLICATE FOUND (#203)
  Amount: $-108.00
  Date difference: 1 days
  KEPT (Privacy.com):
    Date: 2022-03-09
    Description: Pwp WWW.MAKE.COM
    Row: 545
  REMOVED (Wells Fargo):
    Date: 2022-03-10
    Description: Pwp WWW.Make.CO Privacycom TN: 1297598 (844) 771-8229
    Row: 554

✓ DUPLICATE FOUND (#204)
  Amount: $-15.49
  Date difference: 1 days
  KEPT (Privacy.com):
    Date: 2022-03-09
    Description: Pwp Netflix.com
    Row: 546
  REMOVED (Wells Fargo):
    Date: 2022-03-10
    Description: Pwp Netflix.Com Privacycom TN: 3604512 (844) 771-8229
    Row: 552

✓ DUPLICATE FOUND (#205)
  Amount: $-15.49
  Date difference: 4 days
  KEPT (Privacy.com):
    Date: 2022-04-08
    Description: Pwp Netflix.com
    Row: 749
  REMOVED (Wells Fargo):
    Date: 2022-04-12
    Description: Pwp Netflix.Com Privacycom TN: 7223963 (844) 771-8229
    Row: 778

✓ DUPLICATE FOUND (#206)
  Amount: $-15.49
  Date difference: 1 days
  KEPT (Privacy.com):
    Date: 2022-05-08
    Description: Pwp Netflix.com
    Row: 964
  REMOVED (Wells Fargo):
    Date: 2022-05-09
    Description: Pwp Netflix.Com Privacycom TN: 2550693 (844) 771-8229
    Row: 979

✓ DUPLICATE FOUND (#207)
  Amount: $-15.49
  Date difference: 1 days
  KEPT (Privacy.com):
    Date: 2022-06-08
    Description: Pwp Netflix.com
    Row: 1179
  REMOVED (Wells Fargo):
    Date: 2022-06-09
    Description: Pwp Netflix.Com Privacycom TN: 4811301 (844) 771-8229
    Row: 1180

✓ DUPLICATE FOUND (#208)
  Amount: $-15.49
  Date difference: 3 days
  KEPT (Privacy.com):
    Date: 2022-07-08
    Description: Pwp Netflix.com
    Row: 1413
  REMOVED (Wells Fargo):
    Date: 2022-07-11
    Description: Pwp Netflix.Com Privacycom TN: 5901545 (844) 771-8229
    Row: 1427

✓ DUPLICATE FOUND (#209)
  Amount: $-15.49
  Date difference: 1 days
  KEPT (Privacy.com):
    Date: 2022-08-08
    Description: Pwp Netflix.com
    Row: 1597
  REMOVED (Wells Fargo):
    Date: 2022-08-09
    Description: Pwp Netflix.Com Privacycom TN: 1849906 (844) 771-8229
    Row: 1602

✓ DUPLICATE FOUND (#210)
  Amount: $-15.49
  Date difference: 1 days
  KEPT (Privacy.com):
    Date: 2022-09-08
    Description: Pwp Netflix.com
    Row: 1803
  REMOVED (Wells Fargo):
    Date: 2022-09-09
    Description: Pwp Netflix.Com Privacycom TN: 6596258 (844) 771-8229
    Row: 1810

✓ DUPLICATE FOUND (#211)
  Amount: $-15.49
  Date difference: 3 days
  KEPT (Privacy.com):
    Date: 2022-10-08
    Description: Pwp Netflix.com
    Row: 1988
  REMOVED (Wells Fargo):
    Date: 2022-10-11
    Description: Pwp Netflix.Com Privacycom TN: 1623873 (844) 771-8229
    Row: 2062

✓ DUPLICATE FOUND (#212)
  Amount: $-15.49
  Date difference: 1 days
  KEPT (Privacy.com):
    Date: 2022-11-08
    Description: Pwp NETFLIX.COM
    Row: 2250
  REMOVED (Wells Fargo):
    Date: 2022-11-09
    Description: Pwp Netflix.Com Privacycom TN: 1282873 (844) 771-8229
    Row: 2257

✓ DUPLICATE FOUND (#213)
  Amount: $-15.49
  Date difference: 1 days
  KEPT (Privacy.com):
    Date: 2022-12-08
    Description: Pwp Netflix
    Row: 2507
  REMOVED (Wells Fargo):
    Date: 2022-12-09
    Description: Pwp Netflix Privacycom TN: 1717311 (844) 771-8229
    Row: 2516

✓ DUPLICATE FOUND (#214)
  Amount: $-2.75
  Date difference: 2 days
  KEPT (Privacy.com):
    Date: 2022-03-09
    Description: Pwp HEROKU FEB-62762216
    Row: 547
  REMOVED (Wells Fargo):
    Date: 2022-03-11
    Description: Pwp Heroku Feb- Privacycom TN: 7868517 (844) 771-8229
    Row: 557

✓ DUPLICATE FOUND (#215)
  Amount: $-116.95
  Date difference: 2 days
  KEPT (Privacy.com):
    Date: 2022-03-09
    Description: Pwp Amazon.com*1Z8LA9VQ1
    Row: 548
  REMOVED (Wells Fargo):
    Date: 2022-03-11
    Description: Pwp Amazon.Com* Privacycom TN: 8899258 (844) 771-8229
    Row: 559

✓ DUPLICATE FOUND (#216)
  Amount: $-95.73
  Date difference: 3 days
  KEPT (Privacy.com):
    Date: 2022-03-11
    Description: Pwp AMZN MKTP US*1W27I7US2 AM
    Row: 562
  REMOVED (Wells Fargo):
    Date: 2022-03-14
    Description: Pwp Amzn Mktp U Privacycom TN: 5333890 (844) 771-8229
    Row: 570

✓ DUPLICATE FOUND (#217)
  Amount: $-183.71
  Date difference: 1 days
  KEPT (Privacy.com):
    Date: 2022-03-14
    Description: Pwp Amazon.com*1Z1MM4QY0
    Row: 571
  REMOVED (Wells Fargo):
    Date: 2022-03-15
    Description: Pwp Amazon.Com* Privacycom TN: 5247502 (844) 771-8229
    Row: 575

✓ DUPLICATE FOUND (#218)
  Amount: $-42.88
  Date difference: 2 days
  KEPT (Privacy.com):
    Date: 2022-03-15
    Description: Pwp Amazon.com*1N7FB3JR1
    Row: 578
  REMOVED (Wells Fargo):
    Date: 2022-03-17
    Description: Pwp Amazon.Com* Privacycom TN: 9897830 (844) 771-8229
    Row: 592

✓ DUPLICATE FOUND (#219)
  Amount: $-333.28
  Date difference: 0 days
  KEPT (Privacy.com):
    Date: 2022-03-16
    Description: Pwp HEROKU JAN-60634142
    Row: 589
  REMOVED (Wells Fargo):
    Date: 2022-03-16
    Description: Pwp Heroku Jan- Privacycom TN: 2189020 (844) 771-8229
    Row: 586

✓ DUPLICATE FOUND (#220)
  Amount: $-351.34
  Date difference: 0 days
  KEPT (Privacy.com):
    Date: 2022-03-16
    Description: Pwp HEROKU FEB-62862583
    Row: 588
  REMOVED (Wells Fargo):
    Date: 2022-03-16
    Description: Pwp Heroku Feb- Privacycom TN: 2657859 (844) 771-8229
    Row: 587

✓ DUPLICATE FOUND (#221)
  Amount: $-98.73
  Date difference: 2 days
  KEPT (Privacy.com):
    Date: 2022-03-16
    Description: Pwp Amazon.com*1N1696PM1
    Row: 590
  REMOVED (Wells Fargo):
    Date: 2022-03-18
    Description: Pwp Amazon.Com* Privacycom TN: 5863059 (844) 771-8229
    Row: 600

✓ DUPLICATE FOUND (#222)
  Amount: $-170.53
  Date difference: 3 days
  KEPT (Privacy.com):
    Date: 2022-03-18
    Description: Pwp Amazon.com*1Z2TP1732
    Row: 602
  REMOVED (Wells Fargo):
    Date: 2022-03-21
    Description: Pwp Amazon.Com* Privacycom TN: 9115221 (844) 771-8229
    Row: 618

✓ DUPLICATE FOUND (#223)
  Amount: $-48.00
  Date difference: 2 days
  KEPT (Privacy.com):
    Date: 2022-03-19
    Description: Pwp GOOGLE *Domains
    Row: 604
  REMOVED (Wells Fargo):
    Date: 2022-03-21
    Description: Pwp Google *Dom Privacycom TN: 7681054 (844) 771-8229
    Row: 617

✓ DUPLICATE FOUND (#224)
  Amount: $-88.44
  Date difference: 2 days
  KEPT (Privacy.com):
    Date: 2022-03-20
    Description: Pwp Amazon.com*1N30T7F22
    Row: 605
  REMOVED (Wells Fargo):
    Date: 2022-03-22
    Description: Pwp Amazon.Com* Privacycom TN: 7313253 (844) 771-8229
    Row: 623

✓ DUPLICATE FOUND (#225)
  Amount: $-38.58
  Date difference: 2 days
  KEPT (Privacy.com):
    Date: 2022-03-22
    Description: Pwp AMZN Mktp US*1N6O341L2
    Row: 626
  REMOVED (Wells Fargo):
    Date: 2022-03-24
    Description: Pwp Amzn Mktp U Privacycom TN: 1627056 (844) 771-8229
    Row: 638

✓ DUPLICATE FOUND (#226)
  Amount: $-84.67
  Date difference: 2 days
  KEPT (Privacy.com):
    Date: 2022-03-22
    Description: Pwp AMZN Mktp US*1N9O55G22
    Row: 627
  REMOVED (Wells Fargo):
    Date: 2022-03-24
    Description: Pwp Amzn Mktp U Privacycom TN: 2767047 (844) 771-8229
    Row: 639

✓ DUPLICATE FOUND (#227)
  Amount: $-109.62
  Date difference: 2 days
  KEPT (Privacy.com):
    Date: 2022-03-23
    Description: Pwp Amazon.com*1N4J76H72
    Row: 633
  REMOVED (Wells Fargo):
    Date: 2022-03-25
    Description: Pwp Amazon.Com* Privacycom TN: 1748785 (844) 771-8229
    Row: 642

✓ DUPLICATE FOUND (#228)
  Amount: $-13.90
  Date difference: 2 days
  KEPT (Privacy.com):
    Date: 2022-03-23
    Description: Pwp AMAZON.COM*1N5BA5582 AMZN
    Row: 634
  REMOVED (Wells Fargo):
    Date: 2022-03-25
    Description: Pwp Amazon.Com* Privacycom TN: 5415490 (844) 771-8229
    Row: 641

✓ DUPLICATE FOUND (#229)
  Amount: $-41.09
  Date difference: 3 days
  KEPT (Privacy.com):
    Date: 2022-03-25
    Description: Pwp AMZN Mktp US*1N4B616Q2
    Row: 643
  REMOVED (Wells Fargo):
    Date: 2022-03-28
    Description: Pwp Amzn Mktp U Privacycom TN: 5595099 (844) 771-8229
    Row: 666

✓ DUPLICATE FOUND (#230)
  Amount: $-86.77
  Date difference: 3 days
  KEPT (Privacy.com):
    Date: 2022-03-25
    Description: Pwp Amazon.com*1N6EB8WZ0
    Row: 644
  REMOVED (Wells Fargo):
    Date: 2022-03-28
    Description: Pwp Amazon.Com* Privacycom TN: 5123700 (844) 771-8229
    Row: 667

✓ DUPLICATE FOUND (#231)
  Amount: $-11.42
  Date difference: 3 days
  KEPT (Privacy.com):
    Date: 2022-03-25
    Description: Pwp AMZN Mktp US*1622X6F80
    Row: 645
  REMOVED (Wells Fargo):
    Date: 2022-03-28
    Description: Pwp Amzn Mktp U Privacycom TN: 1653531 (844) 771-8229
    Row: 664

✓ DUPLICATE FOUND (#232)
  Amount: $-121.35
  Date difference: 3 days
  KEPT (Privacy.com):
    Date: 2022-03-25
    Description: Pwp Amazon.com*1N8KG4YU0
    Row: 647
  REMOVED (Wells Fargo):
    Date: 2022-03-28
    Description: Pwp Amazon.Com* Privacycom TN: 1576788 (844) 771-8229
    Row: 668

✓ DUPLICATE FOUND (#233)
  Amount: $-1767.46
  Date difference: 2 days
  KEPT (Privacy.com):
    Date: 2022-03-30
    Description: Pwp AMZN Mktp US*1636T3VA2
    Row: 676
  REMOVED (Wells Fargo):
    Date: 2022-04-01
    Description: Pwp Amzn Mktp U Privacycom TN: 5148763 (844) 771-8229
    Row: 690

✓ DUPLICATE FOUND (#234)
  Amount: $-42.20
  Date difference: 2 days
  KEPT (Privacy.com):
    Date: 2022-03-30
    Description: Pwp AMZN Mktp US*164B610F2
    Row: 678
  REMOVED (Wells Fargo):
    Date: 2022-04-01
    Description: Pwp Amzn Mktp U Privacycom TN: 4820197 (844) 771-8229
    Row: 689

✓ DUPLICATE FOUND (#235)
  Amount: $-34.30
  Date difference: 2 days
  KEPT (Privacy.com):
    Date: 2022-03-30
    Description: Pwp AMZN Mktp US*167MU0PU2
    Row: 679
  REMOVED (Wells Fargo):
    Date: 2022-04-01
    Description: Pwp Amzn Mktp U Privacycom TN: 1053512 (844) 771-8229
    Row: 688

✓ DUPLICATE FOUND (#236)
  Amount: $-34.30
  Date difference: 2 days
  KEPT (Privacy.com):
    Date: 2022-07-05
    Description: Pwp Amazon.com*V83P57PK3
    Row: 1379
  REMOVED (Wells Fargo):
    Date: 2022-07-07
    Description: Pwp Amazon.Com* Privacycom TN: 7558753 (844) 771-8229
    Row: 1394

✓ DUPLICATE FOUND (#237)
  Amount: $-76.57
  Date difference: 3 days
  KEPT (Privacy.com):
    Date: 2022-04-01
    Description: Pwp Amazon.com*1636309Y0
    Row: 691
  REMOVED (Wells Fargo):
    Date: 2022-04-04
    Description: Pwp Amazon.Com* Privacycom TN: 1411278 (844) 771-8229
    Row: 711

✓ DUPLICATE FOUND (#238)
  Amount: $-60.01
  Date difference: 3 days
  KEPT (Privacy.com):
    Date: 2022-04-01
    Description: Pwp SLACK T0265NE2YH3
    Row: 692
  REMOVED (Wells Fargo):
    Date: 2022-04-04
    Description: Pwp Slack T0265 Privacycom TN: 3818810 (844) 771-8229
    Row: 710

✓ DUPLICATE FOUND (#239)
  Amount: $-13.24
  Date difference: 4 days
  KEPT (Privacy.com):
    Date: 2022-04-01
    Description: Pwp AMZN Digital*166XQ4R70
    Row: 693
  REMOVED (Wells Fargo):
    Date: 2022-04-05
    Description: Pwp Amzn Digita Privacycom TN: 6380290 (844) 771-8229
    Row: 720

✓ DUPLICATE FOUND (#240)
  Amount: $-38.60
  Date difference: 4 days
  KEPT (Privacy.com):
    Date: 2022-04-01
    Description: Pwp AMZN Mktp US*163PZ98I2
    Row: 694
  REMOVED (Wells Fargo):
    Date: 2022-04-05
    Description: Pwp Amzn Mktp U Privacycom TN: 6334231 (844) 771-8229
    Row: 721

✓ DUPLICATE FOUND (#241)
  Amount: $-38.60
  Date difference: 2 days
  KEPT (Privacy.com):
    Date: 2022-11-19
    Description: Pwp AMZN Mktp US*HI7ZP4W00
    Row: 2333
  REMOVED (Wells Fargo):
    Date: 2022-11-21
    Description: Pwp Amzn Mktp U Privacycom TN: 5891992 (844) 771-8229
    Row: 2352

✓ DUPLICATE FOUND (#242)
  Amount: $-213.43
  Date difference: 3 days
  KEPT (Privacy.com):
    Date: 2022-04-01
    Description: Pwp AMZN MKTP US*169GW38D2 AM
    Row: 696
  REMOVED (Wells Fargo):
    Date: 2022-04-04
    Description: Pwp Amzn Mktp U Privacycom TN: 3031503 (844) 771-8229
    Row: 712

✓ DUPLICATE FOUND (#243)
  Amount: $-128.68
  Date difference: 2 days
  KEPT (Privacy.com):
    Date: 2022-04-02
    Description: Pwp AMZN Mktp US*1H6H73G51
    Row: 697
  REMOVED (Wells Fargo):
    Date: 2022-04-04
    Description: Pwp Amzn Mktp U Privacycom TN: 6106053 (844) 771-8229
    Row: 714

✓ DUPLICATE FOUND (#244)
  Amount: $-64.22
  Date difference: 2 days
  KEPT (Privacy.com):
    Date: 2022-04-04
    Description: Pwp Twitter Online Ads
    Row: 715
  REMOVED (Wells Fargo):
    Date: 2022-04-06
    Description: Pwp Twitter Onl Privacycom TN: 1983420 (844) 771-8229
    Row: 731

✓ DUPLICATE FOUND (#245)
  Amount: $-90.04
  Date difference: 1 days
  KEPT (Privacy.com):
    Date: 2022-04-05
    Description: Pwp AMZN Mktp US*1H5QB7160
    Row: 725
  REMOVED (Wells Fargo):
    Date: 2022-04-06
    Description: Pwp Amzn Mktp U Privacycom TN: 7334708 (844) 771-8229
    Row: 732

✓ DUPLICATE FOUND (#246)
  Amount: $-128.69
  Date difference: 1 days
  KEPT (Privacy.com):
    Date: 2022-04-05
    Description: Pwp AMZN Mktp US*1H4Q57P00
    Row: 726
  REMOVED (Wells Fargo):
    Date: 2022-04-06
    Description: Pwp Amzn Mktp U Privacycom TN: 9639037 (844) 771-8229
    Row: 733

✓ DUPLICATE FOUND (#247)
  Amount: $-400.92
  Date difference: 2 days
  KEPT (Privacy.com):
    Date: 2022-04-05
    Description: Pwp AMZN Mktp US*1A2CW34J1
    Row: 727
  REMOVED (Wells Fargo):
    Date: 2022-04-07
    Description: Pwp Amzn Mktp U Privacycom TN: 7463652 (844) 771-8229
    Row: 738

✓ DUPLICATE FOUND (#248)
  Amount: $-114.94
  Date difference: 2 days
  KEPT (Privacy.com):
    Date: 2022-04-05
    Description: Pwp Amazon.com*1H7SA1MV0
    Row: 728
  REMOVED (Wells Fargo):
    Date: 2022-04-07
    Description: Pwp Amazon.Com* Privacycom TN: 5466816 (844) 771-8229
    Row: 736

✓ DUPLICATE FOUND (#249)
  Amount: $-7.48
  Date difference: 2 days
  KEPT (Privacy.com):
    Date: 2022-04-05
    Description: Pwp AMZN Mktp US*1H9TU6L72
    Row: 729
  REMOVED (Wells Fargo):
    Date: 2022-04-07
    Description: Pwp Amzn Mktp U Privacycom TN: 5237535 (844) 771-8229
    Row: 735

✓ DUPLICATE FOUND (#250)
  Amount: $-33.78
  Date difference: 1 days
  KEPT (Privacy.com):
    Date: 2022-04-07
    Description: Pwp AMZN Mktp US*1A8723ZY1
    Row: 739
  REMOVED (Wells Fargo):
    Date: 2022-04-08
    Description: Pwp Amzn Mktp U Privacycom TN: 2710686 (844) 771-8229
    Row: 747

✓ DUPLICATE FOUND (#251)
  Amount: $-299.04
  Date difference: 1 days
  KEPT (Privacy.com):
    Date: 2022-04-07
    Description: Pwp AMZN Mktp US*1A7342JR1
    Row: 740
  REMOVED (Wells Fargo):
    Date: 2022-04-08
    Description: Pwp Amzn Mktp U Privacycom TN: 3667377 (844) 771-8229
    Row: 748

✓ DUPLICATE FOUND (#252)
  Amount: $-138.45
  Date difference: 3 days
  KEPT (Privacy.com):
    Date: 2022-04-09
    Description: Pwp Amazon.com*1A34N4G91
    Row: 750
  REMOVED (Wells Fargo):
    Date: 2022-04-12
    Description: Pwp Amazon.Com* Privacycom TN: 6473220 (844) 771-8229
    Row: 780

✓ DUPLICATE FOUND (#253)
  Amount: $-151.00
  Date difference: 2 days
  KEPT (Privacy.com):
    Date: 2022-04-10
    Description: Pwp AMZ*Birddogs
    Row: 751
  REMOVED (Wells Fargo):
    Date: 2022-04-12
    Description: Pwp Amz*Birddog Privacycom TN: 5833649 (844) 771-8229
    Row: 781

✓ DUPLICATE FOUND (#254)
  Amount: $-86.15
  Date difference: 2 days
  KEPT (Privacy.com):
    Date: 2022-04-10
    Description: Pwp Amazon.com*1A1KO1DZ1
    Row: 753
  REMOVED (Wells Fargo):
    Date: 2022-04-12
    Description: Pwp Amazon.Com* Privacycom TN: 2481433 (844) 771-8229
    Row: 779

✓ DUPLICATE FOUND (#255)
  Amount: $-293.27
  Date difference: 1 days
  KEPT (Privacy.com):
    Date: 2022-04-11
    Description: Pwp HEROKU MAR-64235244
    Row: 771
  REMOVED (Wells Fargo):
    Date: 2022-04-12
    Description: Pwp Heroku Mar- Privacycom TN: 7797279 (844) 771-8229
    Row: 782

✓ DUPLICATE FOUND (#256)
  Amount: $-58.00
  Date difference: 2 days
  KEPT (Privacy.com):
    Date: 2022-04-13
    Description: Pwp GOOGLE *Domains
    Row: 787
  REMOVED (Wells Fargo):
    Date: 2022-04-15
    Description: Pwp Google *Dom Privacycom TN: 6452456 (844) 771-8229
    Row: 797

✓ DUPLICATE FOUND (#257)
  Amount: $-147.96
  Date difference: 1 days
  KEPT (Privacy.com):
    Date: 2022-04-14
    Description: Pwp Amazon.com*1A3GB8J22
    Row: 790
  REMOVED (Wells Fargo):
    Date: 2022-04-15
    Description: Pwp Amazon.Com* Privacycom TN: 3560033 (844) 771-8229
    Row: 798

✓ DUPLICATE FOUND (#258)
  Amount: $-172.64
  Date difference: 2 days
  KEPT (Privacy.com):
    Date: 2022-04-16
    Description: Pwp Amazon.com*1O44240G1
    Row: 801
  REMOVED (Wells Fargo):
    Date: 2022-04-18
    Description: Pwp Amazon.Com* Privacycom TN: 8389698 (844) 771-8229
    Row: 821

✓ DUPLICATE FOUND (#259)
  Amount: $-78.87
  Date difference: 2 days
  KEPT (Privacy.com):
    Date: 2022-04-17
    Description: Pwp AMZN MKTP US*1O8HQ3HX1 AM
    Row: 803
  REMOVED (Wells Fargo):
    Date: 2022-04-19
    Description: Pwp Amzn Mktp U Privacycom TN: 7753345 (844) 771-8229
    Row: 826

✓ DUPLICATE FOUND (#260)
  Amount: $-21.32
  Date difference: 2 days
  KEPT (Privacy.com):
    Date: 2022-04-18
    Description: Pwp Amazon.com*1A1FR5K82
    Row: 822
  REMOVED (Wells Fargo):
    Date: 2022-04-20
    Description: Pwp Amazon.Com* Privacycom TN: 1589258 (844) 771-8229
    Row: 837

✓ DUPLICATE FOUND (#261)
  Amount: $-70.00
  Date difference: 2 days
  KEPT (Privacy.com):
    Date: 2022-04-20
    Description: Pwp AMZN Mktp US*1A0R58Y72
    Row: 838
  REMOVED (Wells Fargo):
    Date: 2022-04-22
    Description: Pwp Amzn Mktp U Privacycom TN: 1025192 (844) 771-8229
    Row: 851

✓ DUPLICATE FOUND (#262)
  Amount: $-192.21
  Date difference: 3 days
  KEPT (Privacy.com):
    Date: 2022-04-22
    Description: Pwp Amazon.com*1Q7M37TK1
    Row: 852
  REMOVED (Wells Fargo):
    Date: 2022-04-25
    Description: Pwp Amazon.Com* Privacycom TN: 7394901 (844) 771-8229
    Row: 871

✓ DUPLICATE FOUND (#263)
  Amount: $-15.39
  Date difference: 3 days
  KEPT (Privacy.com):
    Date: 2022-04-22
    Description: Pwp AMZN Mktp US*1O7SG4EM2
    Row: 853
  REMOVED (Wells Fargo):
    Date: 2022-04-25
    Description: Pwp Amzn Mktp U Privacycom TN: 7187665 (844) 771-8229
    Row: 869

✓ DUPLICATE FOUND (#264)
  Amount: $-16.08
  Date difference: 1 days
  KEPT (Privacy.com):
    Date: 2022-04-24
    Description: Pwp AMZN Mktp US*1Q2CN4XQ1
    Row: 856
  REMOVED (Wells Fargo):
    Date: 2022-04-25
    Description: Pwp Amzn Mktp U Privacycom TN: 9137410 (844) 771-8229
    Row: 870

✓ DUPLICATE FOUND (#265)
  Amount: $-16.08
  Date difference: 1 days
  KEPT (Privacy.com):
    Date: 2022-06-09
    Description: Pwp AMZN Mktp US*FT2KR7D23
    Row: 1188
  REMOVED (Wells Fargo):
    Date: 2022-06-10
    Description: Pwp Amzn Mktp U Privacycom TN: 1650627 (844) 771-8229
    Row: 1198

✓ DUPLICATE FOUND (#266)
  Amount: $-25.59
  Date difference: 2 days
  KEPT (Privacy.com):
    Date: 2022-04-24
    Description: Pwp AMZN Mktp US*1O08O1HX2
    Row: 859
  REMOVED (Wells Fargo):
    Date: 2022-04-26
    Description: Pwp Amzn Mktp U Privacycom TN: 2976251 (844) 771-8229
    Row: 878

✓ DUPLICATE FOUND (#267)
  Amount: $-94.77
  Date difference: 2 days
  KEPT (Privacy.com):
    Date: 2022-04-25
    Description: Pwp Twitter Online Ads
[...]
  Possible WF match 1 (2022-03-21): Pwp Amazon Tips Privacycom TN: 9108095 (844) 771-8229
  Possible WF match 2 (2022-03-23): Pwp Amazon Tips Privacycom TN: 3749131 (844) 771-8229
  Possible WF match 3 (2022-03-28): Pwp Amazon Tips Privacycom TN: 2025725 (844) 771-8229
  Possible WF match 4 (2022-03-28): Pwp Amazon Tips Privacycom TN: 5797147 (844) 771-8229
  Possible WF match 5 (2022-03-28): Pwp Amazon Tips Privacycom TN: 6903943 (844) 771-8229

⚠️  AMBIGUOUS MATCH
  Amount: $-7.00
  Privacy.com (2022-03-26): Pwp Amazon Tips*1670X1BP1
  Possible WF match 1 (2022-03-21): Pwp Amazon Tips Privacycom TN: 9108095 (844) 771-8229
  Possible WF match 2 (2022-03-23): Pwp Amazon Tips Privacycom TN: 3749131 (844) 771-8229
  Possible WF match 3 (2022-03-28): Pwp Amazon Tips Privacycom TN: 2025725 (844) 771-8229
  Possible WF match 4 (2022-03-28): Pwp Amazon Tips Privacycom TN: 5797147 (844) 771-8229
  Possible WF match 5 (2022-03-28): Pwp Amazon Tips Privacycom TN: 6903943 (844) 771-8229

⚠️  AMBIGUOUS MATCH
  Amount: $-7.00
  Privacy.com (2022-04-02): Pwp Amazon Tips*1649C8YJ0
  Possible WF match 1 (2022-03-28): Pwp Amazon Tips Privacycom TN: 2025725 (844) 771-8229
  Possible WF match 2 (2022-03-28): Pwp Amazon Tips Privacycom TN: 5797147 (844) 771-8229
  Possible WF match 3 (2022-03-28): Pwp Amazon Tips Privacycom TN: 6903943 (844) 771-8229
  Possible WF match 4 (2022-04-04): Pwp Amazon Tips Privacycom TN: 1138544 (844) 771-8229

⚠️  AMBIGUOUS MATCH
  Amount: $-7.00
  Privacy.com (2022-04-07): Pwp Amazon Tips*1H2JU0AJ2
  Possible WF match 1 (2022-04-04): Pwp Amazon Tips Privacycom TN: 1138544 (844) 771-8229
  Possible WF match 2 (2022-04-08): Pwp Amazon Tips Privacycom TN: 1682771 (844) 771-8229
  Possible WF match 3 (2022-04-12): Pwp Amazon Tips Privacycom TN: 4635673 (844) 771-8229

⚠️  AMBIGUOUS MATCH
  Amount: $-7.00
  Privacy.com (2022-04-10): Pwp Amazon Tips*1H17N2WY0
  Possible WF match 1 (2022-04-08): Pwp Amazon Tips Privacycom TN: 1682771 (844) 771-8229
  Possible WF match 2 (2022-04-12): Pwp Amazon Tips Privacycom TN: 4635673 (844) 771-8229
  Possible WF match 3 (2022-04-13): Pwp Amazon Tips Privacycom TN: 3048350 (844) 771-8229

⚠️  AMBIGUOUS MATCH
  Amount: $-7.00
  Privacy.com (2022-04-12): Pwp Amazon Tips*1H1IV6RN2
  Possible WF match 1 (2022-04-08): Pwp Amazon Tips Privacycom TN: 1682771 (844) 771-8229
  Possible WF match 2 (2022-04-12): Pwp Amazon Tips Privacycom TN: 4635673 (844) 771-8229
  Possible WF match 3 (2022-04-13): Pwp Amazon Tips Privacycom TN: 3048350 (844) 771-8229

⚠️  AMBIGUOUS MATCH
  Amount: $-7.00
  Privacy.com (2022-04-15): Pwp Amazon Tips*1A6CC3HX0
  Possible WF match 1 (2022-04-12): Pwp Amazon Tips Privacycom TN: 4635673 (844) 771-8229
  Possible WF match 2 (2022-04-13): Pwp Amazon Tips Privacycom TN: 3048350 (844) 771-8229
  Possible WF match 3 (2022-04-18): Pwp Amazon Tips Privacycom TN: 6336185 (844) 771-8229

⚠️  AMBIGUOUS MATCH
  Amount: $-7.00
  Privacy.com (2022-04-28): Pwp Amazon Tips*1Q3FF0F50
  Possible WF match 1 (2022-04-29): Pwp Amazon Tips Privacycom TN: 1508760 (844) 771-8229
  Possible WF match 2 (2022-05-02): Pwp Amazon Tips Privacycom TN: 1869502 (844) 771-8229

⚠️  AMBIGUOUS MATCH
  Amount: $-7.00
  Privacy.com (2022-04-30): Pwp Amazon Tips*1Q3IC2E10
  Possible WF match 1 (2022-04-29): Pwp Amazon Tips Privacycom TN: 1508760 (844) 771-8229
  Possible WF match 2 (2022-05-02): Pwp Amazon Tips Privacycom TN: 1869502 (844) 771-8229
  Possible WF match 3 (2022-05-04): Pwp Amazon Tips Privacycom TN: 1726207 (844) 771-8229

⚠️  AMBIGUOUS MATCH
  Amount: $-7.00
  Privacy.com (2022-05-02): Pwp Amazon Tips*1Q5Q52HY2
  Possible WF match 1 (2022-04-29): Pwp Amazon Tips Privacycom TN: 1508760 (844) 771-8229
  Possible WF match 2 (2022-05-02): Pwp Amazon Tips Privacycom TN: 1869502 (844) 771-8229
  Possible WF match 3 (2022-05-04): Pwp Amazon Tips Privacycom TN: 1726207 (844) 771-8229

⚠️  AMBIGUOUS MATCH
  Amount: $-7.00
  Privacy.com (2022-05-05): Pwp Amazon Tips*1Q3K16YS0
  Possible WF match 1 (2022-05-02): Pwp Amazon Tips Privacycom TN: 1869502 (844) 771-8229
  Possible WF match 2 (2022-05-04): Pwp Amazon Tips Privacycom TN: 1726207 (844) 771-8229
  Possible WF match 3 (2022-05-09): Pwp Amazon Tips Privacycom TN: 1152850 (844) 771-8229

⚠️  AMBIGUOUS MATCH
  Amount: $-7.00
  Privacy.com (2022-05-17): Pwp Amazon Tips*1L7ZC51P0
  Possible WF match 1 (2022-05-18): Pwp Amazon Tips Privacycom TN: 4130619 (844) 771-8229
  Possible WF match 2 (2022-05-19): Pwp Amazon Tips Privacycom TN: 9637929 (844) 771-8229

⚠️  AMBIGUOUS MATCH
  Amount: $-7.00
  Privacy.com (2022-05-17): Pwp Amazon Tips*1R3ML3QR1
  Possible WF match 1 (2022-05-18): Pwp Amazon Tips Privacycom TN: 4130619 (844) 771-8229
  Possible WF match 2 (2022-05-19): Pwp Amazon Tips Privacycom TN: 9637929 (844) 771-8229

⚠️  AMBIGUOUS MATCH
  Amount: $-7.00
  Privacy.com (2022-05-20): Pwp Amazon Tips*1X6727OL1
  Possible WF match 1 (2022-05-18): Pwp Amazon Tips Privacycom TN: 4130619 (844) 771-8229
  Possible WF match 2 (2022-05-19): Pwp Amazon Tips Privacycom TN: 9637929 (844) 771-8229
  Possible WF match 3 (2022-05-23): Pwp Amazon Tips Privacycom TN: 8514384 (844) 771-8229
  Possible WF match 4 (2022-05-24): Pwp Amazon Tips Privacycom TN: 9956233 (844) 771-8229

⚠️  AMBIGUOUS MATCH
  Amount: $-7.00
  Privacy.com (2022-05-22): Pwp Amazon Tips*1R6R06FK0
  Possible WF match 1 (2022-05-18): Pwp Amazon Tips Privacycom TN: 4130619 (844) 771-8229
  Possible WF match 2 (2022-05-19): Pwp Amazon Tips Privacycom TN: 9637929 (844) 771-8229
  Possible WF match 3 (2022-05-23): Pwp Amazon Tips Privacycom TN: 8514384 (844) 771-8229
  Possible WF match 4 (2022-05-24): Pwp Amazon Tips Privacycom TN: 9956233 (844) 771-8229

⚠️  AMBIGUOUS MATCH
  Amount: $-7.00
  Privacy.com (2022-06-02): Pwp Amazon Tips*Y21SH18Z3
  Possible WF match 1 (2022-06-01): Pwp Amazon Tips Privacycom TN: 5023979 (844) 771-8229
  Possible WF match 2 (2022-06-06): Pwp Amazon Tips Privacycom TN: 7448826 (844) 771-8229

⚠️  AMBIGUOUS MATCH
  Amount: $-7.00
  Privacy.com (2022-06-09): Pwp Amazon Tips*H20KZ1373
  Possible WF match 1 (2022-06-06): Pwp Amazon Tips Privacycom TN: 7448826 (844) 771-8229
  Possible WF match 2 (2022-06-10): Pwp Amazon Tips Privacycom TN: 2733456 (844) 771-8229
  Possible WF match 3 (2022-06-13): Pwp Amazon Tips Privacycom TN: 8839758 (844) 771-8229

⚠️  AMBIGUOUS MATCH
  Amount: $-7.00
  Privacy.com (2022-06-12): Pwp Amazon Tips*8M16Q1Y23
  Possible WF match 1 (2022-06-10): Pwp Amazon Tips Privacycom TN: 2733456 (844) 771-8229
  Possible WF match 2 (2022-06-13): Pwp Amazon Tips Privacycom TN: 8839758 (844) 771-8229
  Possible WF match 3 (2022-06-15): Pwp Amazon Tips Privacycom TN: 6728228 (844) 771-8229

⚠️  AMBIGUOUS MATCH
  Amount: $-7.00
  Privacy.com (2022-06-14): Pwp Amazon Tips*C17PQ9RA3
  Possible WF match 1 (2022-06-10): Pwp Amazon Tips Privacycom TN: 2733456 (844) 771-8229
  Possible WF match 2 (2022-06-13): Pwp Amazon Tips Privacycom TN: 8839758 (844) 771-8229
  Possible WF match 3 (2022-06-15): Pwp Amazon Tips Privacycom TN: 6728228 (844) 771-8229

⚠️  AMBIGUOUS MATCH
  Amount: $-7.00
  Privacy.com (2022-06-18): Pwp Amazon Tips*3S59I0XZ3
  Possible WF match 1 (2022-06-13): Pwp Amazon Tips Privacycom TN: 8839758 (844) 771-8229
  Possible WF match 2 (2022-06-15): Pwp Amazon Tips Privacycom TN: 6728228 (844) 771-8229
  Possible WF match 3 (2022-06-21): Pwp Amazon Tips Privacycom TN: 1629439 (844) 771-8229
  Possible WF match 4 (2022-06-21): Pwp Amazon Tips Privacycom TN: 9315153 (844) 771-8229
  Possible WF match 5 (2022-06-21): Pwp Amazon Tips Privacycom TN: 9742665 (844) 771-8229

⚠️  AMBIGUOUS MATCH
  Amount: $-7.00
  Privacy.com (2022-06-19): Pwp Amazon Tips*TS2CH5Q73
  Possible WF match 1 (2022-06-15): Pwp Amazon Tips Privacycom TN: 6728228 (844) 771-8229
  Possible WF match 2 (2022-06-21): Pwp Amazon Tips Privacycom TN: 1629439 (844) 771-8229
  Possible WF match 3 (2022-06-21): Pwp Amazon Tips Privacycom TN: 9315153 (844) 771-8229
  Possible WF match 4 (2022-06-21): Pwp Amazon Tips Privacycom TN: 9742665 (844) 771-8229

⚠️  AMBIGUOUS MATCH
  Amount: $-7.00
  Privacy.com (2022-06-20): Pwp Amazon Tips*BY41K5OT3
  Possible WF match 1 (2022-06-15): Pwp Amazon Tips Privacycom TN: 6728228 (844) 771-8229
  Possible WF match 2 (2022-06-21): Pwp Amazon Tips Privacycom TN: 1629439 (844) 771-8229
  Possible WF match 3 (2022-06-21): Pwp Amazon Tips Privacycom TN: 9315153 (844) 771-8229
  Possible WF match 4 (2022-06-21): Pwp Amazon Tips Privacycom TN: 9742665 (844) 771-8229

⚠️  AMBIGUOUS MATCH
  Amount: $-7.00
  Privacy.com (2022-06-26): Pwp Amazon Tips*169NQ0P33
  Possible WF match 1 (2022-06-21): Pwp Amazon Tips Privacycom TN: 1629439 (844) 771-8229
  Possible WF match 2 (2022-06-21): Pwp Amazon Tips Privacycom TN: 9315153 (844) 771-8229
  Possible WF match 3 (2022-06-21): Pwp Amazon Tips Privacycom TN: 9742665 (844) 771-8229
  Possible WF match 4 (2022-06-28): Pwp Amazon Tips Privacycom TN: 2039403 (844) 771-8229
  Possible WF match 5 (2022-06-30): Pwp Amazon Tips Privacycom TN: 5274095 (844) 771-8229
  Possible WF match 6 (2022-07-01): Pwp Amazon Tips Privacycom TN: 7120215 (844) 771-8229

⚠️  AMBIGUOUS MATCH
  Amount: $-7.00
  Privacy.com (2022-06-28): Pwp Amazon Tips*YG2TK00W3
  Possible WF match 1 (2022-06-28): Pwp Amazon Tips Privacycom TN: 2039403 (844) 771-8229
  Possible WF match 2 (2022-06-30): Pwp Amazon Tips Privacycom TN: 5274095 (844) 771-8229
  Possible WF match 3 (2022-07-01): Pwp Amazon Tips Privacycom TN: 7120215 (844) 771-8229

⚠️  AMBIGUOUS MATCH
  Amount: $-7.00
  Privacy.com (2022-06-29): Pwp Amazon Tips*PJ3JE6ED3
  Possible WF match 1 (2022-06-28): Pwp Amazon Tips Privacycom TN: 2039403 (844) 771-8229
  Possible WF match 2 (2022-06-30): Pwp Amazon Tips Privacycom TN: 5274095 (844) 771-8229
  Possible WF match 3 (2022-07-01): Pwp Amazon Tips Privacycom TN: 7120215 (844) 771-8229

⚠️  AMBIGUOUS MATCH
  Amount: $-7.00
  Privacy.com (2022-07-03): Pwp Amazon Tips*8J6CG1X23
  Possible WF match 1 (2022-06-28): Pwp Amazon Tips Privacycom TN: 2039403 (844) 771-8229
  Possible WF match 2 (2022-06-30): Pwp Amazon Tips Privacycom TN: 5274095 (844) 771-8229
  Possible WF match 3 (2022-07-01): Pwp Amazon Tips Privacycom TN: 7120215 (844) 771-8229
  Possible WF match 4 (2022-07-05): Pwp Amazon Tips Privacycom TN: 9576831 (844) 771-8229
  Possible WF match 5 (2022-07-08): Pwp Amazon Tips Privacycom TN: 1727289 (844) 771-8229

⚠️  AMBIGUOUS MATCH
  Amount: $-7.00
  Privacy.com (2022-07-07): Pwp Amazon Tips*H27I14853
  Possible WF match 1 (2022-07-05): Pwp Amazon Tips Privacycom TN: 9576831 (844) 771-8229
  Possible WF match 2 (2022-07-08): Pwp Amazon Tips Privacycom TN: 1727289 (844) 771-8229

⚠️  AMBIGUOUS MATCH
  Amount: $-7.00
  Privacy.com (2022-07-12): Pwp Amazon Tips*G55S03AG3
  Possible WF match 1 (2022-07-08): Pwp Amazon Tips Privacycom TN: 1727289 (844) 771-8229
  Possible WF match 2 (2022-07-13): Pwp Amazon Tips Privacycom TN: 7215652 (844) 771-8229

⚠️  AMBIGUOUS MATCH
  Amount: $-7.00
  Privacy.com (2022-07-16): Pwp Amazon Tips*S36302T43
  Possible WF match 1 (2022-07-13): Pwp Amazon Tips Privacycom TN: 7215652 (844) 771-8229
  Possible WF match 2 (2022-07-18): Pwp Amazon Tips Privacycom TN: 6781460 (844) 771-8229

⚠️  AMBIGUOUS MATCH
  Amount: $-7.00
  Privacy.com (2022-07-20): Pwp Amazon Tips*SL7G14Q03
  Possible WF match 1 (2022-07-18): Pwp Amazon Tips Privacycom TN: 6781460 (844) 771-8229
  Possible WF match 2 (2022-07-22): Pwp Amazon Tips Privacycom TN: 9149475 (844) 771-8229

⚠️  AMBIGUOUS MATCH
  Amount: $-7.00
  Privacy.com (2022-07-25): Pwp Amazon Tips*PZ6JS26T3
  Possible WF match 1 (2022-07-22): Pwp Amazon Tips Privacycom TN: 9149475 (844) 771-8229
  Possible WF match 2 (2022-07-27): Pwp Amazon Tips Privacycom TN: 4067453 (844) 771-8229

⚠️  AMBIGUOUS MATCH
  Amount: $-7.00
  Privacy.com (2022-07-29): Pwp Amazon Tips*3B1OR9JT3
  Possible WF match 1 (2022-07-27): Pwp Amazon Tips Privacycom TN: 4067453 (844) 771-8229
  Possible WF match 2 (2022-08-01): Pwp Amazon Tips Privacycom TN: 6777583 (844) 771-8229
  Possible WF match 3 (2022-08-01): Pwp Amazon Tips Privacycom TN: 7696356 (844) 771-8229
  Possible WF match 4 (2022-08-03): Pwp Amazon Tips Privacycom TN: 8943013 (844) 771-8229

⚠️  AMBIGUOUS MATCH
  Amount: $-7.00
  Privacy.com (2022-07-30): Pwp Amazon Tips*XK3BX7TV3
  Possible WF match 1 (2022-07-27): Pwp Amazon Tips Privacycom TN: 4067453 (844) 771-8229
  Possible WF match 2 (2022-08-01): Pwp Amazon Tips Privacycom TN: 6777583 (844) 771-8229
  Possible WF match 3 (2022-08-01): Pwp Amazon Tips Privacycom TN: 7696356 (844) 771-8229
  Possible WF match 4 (2022-08-03): Pwp Amazon Tips Privacycom TN: 8943013 (844) 771-8229

⚠️  AMBIGUOUS MATCH
  Amount: $-7.00
  Privacy.com (2022-08-02): Pwp Amazon Tips*QJ6C51ST3
  Possible WF match 1 (2022-08-01): Pwp Amazon Tips Privacycom TN: 6777583 (844) 771-8229
  Possible WF match 2 (2022-08-01): Pwp Amazon Tips Privacycom TN: 7696356 (844) 771-8229
  Possible WF match 3 (2022-08-03): Pwp Amazon Tips Privacycom TN: 8943013 (844) 771-8229

⚠️  AMBIGUOUS MATCH
  Amount: $-7.00
  Privacy.com (2022-08-14): Pwp Amazon Tips*UM7CG2AI3
  Possible WF match 1 (2022-08-15): Pwp Amazon Tips Privacycom TN: 8941398 (844) 771-8229
  Possible WF match 2 (2022-08-17): Pwp Amazon Tips Privacycom TN: 5167387 (844) 771-8229

⚠️  AMBIGUOUS MATCH
  Amount: $-7.00
  Privacy.com (2022-08-16): Pwp Amazon Tips*QG9PE7WB3
  Possible WF match 1 (2022-08-15): Pwp Amazon Tips Privacycom TN: 8941398 (844) 771-8229
  Possible WF match 2 (2022-08-17): Pwp Amazon Tips Privacycom TN: 5167387 (844) 771-8229

⚠️  AMBIGUOUS MATCH
  Amount: $-7.00
  Privacy.com (2022-09-02): Pwp Amazon Tips*1V8AK27N1
  Possible WF match 1 (2022-08-29): Pwp Amazon Tips Privacycom TN: 2477535 (844) 771-8229
  Possible WF match 2 (2022-09-06): Pwp Amazon Tips Privacycom TN: 1750527 (844) 771-8229

⚠️  AMBIGUOUS MATCH
  Amount: $-7.00
  Privacy.com (2022-09-14): Pwp Amazon Tips*1M42C8CP0
  Possible WF match 1 (2022-09-15): Pwp Amazon Tips Privacycom TN: 5462434 (844) 771-8229
  Possible WF match 2 (2022-09-19): Pwp Amazon Tips Privacycom TN: 2862741 (844) 771-8229

⚠️  AMBIGUOUS MATCH
  Amount: $-7.00
  Privacy.com (2022-09-16): Pwp Amazon Tips*1M0FK1HP1
  Possible WF match 1 (2022-09-15): Pwp Amazon Tips Privacycom TN: 5462434 (844) 771-8229
  Possible WF match 2 (2022-09-19): Pwp Amazon Tips Privacycom TN: 2862741 (844) 771-8229
  Possible WF match 3 (2022-09-21): Pwp Amazon Tips Privacycom TN: 1164733 (844) 771-8229

⚠️  AMBIGUOUS MATCH
  Amount: $-7.00
  Privacy.com (2022-09-20): Pwp Amazon Tips*1U6Q07OW1
  Possible WF match 1 (2022-09-15): Pwp Amazon Tips Privacycom TN: 5462434 (844) 771-8229
  Possible WF match 2 (2022-09-19): Pwp Amazon Tips Privacycom TN: 2862741 (844) 771-8229
  Possible WF match 3 (2022-09-21): Pwp Amazon Tips Privacycom TN: 1164733 (844) 771-8229

⚠️  AMBIGUOUS MATCH
  Amount: $-7.00
  Privacy.com (2022-10-29): Pwp Amazon Tips*H87MR8RD2
  Possible WF match 1 (2022-10-24): Pwp Amazon Tips Privacycom TN: 5356093 (844) 771-8229
  Possible WF match 2 (2022-10-31): Pwp Amazon Tips Privacycom TN: 1459450 (844) 771-8229

⚠️  AMBIGUOUS MATCH
  Amount: $-7.00
  Privacy.com (2022-11-17): Pwp Amazon Tips*HB4N78922
  Possible WF match 1 (2022-11-18): Pwp Amazon Tips Privacycom TN: 1676341 (844) 771-8229
  Possible WF match 2 (2022-11-21): Pwp Amazon Tips Privacycom TN: 2238978 (844) 771-8229

⚠️  AMBIGUOUS MATCH
  Amount: $-7.00
  Privacy.com (2022-11-20): Pwp Amazon Tips*HI33Q47K1
  Possible WF match 1 (2022-11-18): Pwp Amazon Tips Privacycom TN: 1676341 (844) 771-8229
  Possible WF match 2 (2022-11-21): Pwp Amazon Tips Privacycom TN: 2238978 (844) 771-8229
  Possible WF match 3 (2022-11-23): Pwp Amazon Tips Privacycom TN: 1217909 (844) 771-8229
  Possible WF match 4 (2022-11-25): Pwp Amazon Tips Privacycom TN: 1559924 (844) 771-8229

⚠️  AMBIGUOUS MATCH
  Amount: $-7.00
  Privacy.com (2022-11-22): Pwp Amazon Tips*HI4SO7SO2
  Possible WF match 1 (2022-11-18): Pwp Amazon Tips Privacycom TN: 1676341 (844) 771-8229
  Possible WF match 2 (2022-11-21): Pwp Amazon Tips Privacycom TN: 2238978 (844) 771-8229
  Possible WF match 3 (2022-11-23): Pwp Amazon Tips Privacycom TN: 1217909 (844) 771-8229
  Possible WF match 4 (2022-11-25): Pwp Amazon Tips Privacycom TN: 1559924 (844) 771-8229

⚠️  AMBIGUOUS MATCH
  Amount: $-7.00
  Privacy.com (2022-11-23): Pwp Amazon Tips*HI4993WI2
  Possible WF match 1 (2022-11-18): Pwp Amazon Tips Privacycom TN: 1676341 (844) 771-8229
  Possible WF match 2 (2022-11-21): Pwp Amazon Tips Privacycom TN: 2238978 (844) 771-8229
  Possible WF match 3 (2022-11-23): Pwp Amazon Tips Privacycom TN: 1217909 (844) 771-8229
  Possible WF match 4 (2022-11-25): Pwp Amazon Tips Privacycom TN: 1559924 (844) 771-8229

⚠️  AMBIGUOUS MATCH
  Amount: $-7.00
  Privacy.com (2022-12-02): Pwp Amazon Tips*WF7734H73
  Possible WF match 1 (2022-12-05): Pwp Amazon Tips Privacycom TN: 4940168 (844) 771-8229
  Possible WF match 2 (2022-12-07): Pwp Amazon Tips Privacycom TN: 1611901 (844) 771-8229

⚠️  AMBIGUOUS MATCH
  Amount: $-7.00
  Privacy.com (2022-12-06): Pwp Amazon Tips*YN75Q3WE3
  Possible WF match 1 (2022-12-05): Pwp Amazon Tips Privacycom TN: 4940168 (844) 771-8229
  Possible WF match 2 (2022-12-07): Pwp Amazon Tips Privacycom TN: 1611901 (844) 771-8229
  Possible WF match 3 (2022-12-08): Pwp Amazon Tips Privacycom TN: 7453893 (844) 771-8229
  Possible WF match 4 (2022-12-09): Pwp Amazon Tips Privacycom TN: 1244340 (844) 771-8229

⚠️  AMBIGUOUS MATCH
  Amount: $-7.00
  Privacy.com (2022-12-07): Pwp Amazon Tips*6D4GY25N3
  Possible WF match 1 (2022-12-05): Pwp Amazon Tips Privacycom TN: 4940168 (844) 771-8229
  Possible WF match 2 (2022-12-07): Pwp Amazon Tips Privacycom TN: 1611901 (844) 771-8229
  Possible WF match 3 (2022-12-08): Pwp Amazon Tips Privacycom TN: 7453893 (844) 771-8229
  Possible WF match 4 (2022-12-09): Pwp Amazon Tips Privacycom TN: 1244340 (844) 771-8229

⚠️  AMBIGUOUS MATCH
  Amount: $-7.00
  Privacy.com (2022-12-08): Pwp Amazon Tips*RF1TX26K3
  Possible WF match 1 (2022-12-05): Pwp Amazon Tips Privacycom TN: 4940168 (844) 771-8229
  Possible WF match 2 (2022-12-07): Pwp Amazon Tips Privacycom TN: 1611901 (844) 771-8229
  Possible WF match 3 (2022-12-08): Pwp Amazon Tips Privacycom TN: 7453893 (844) 771-8229
  Possible WF match 4 (2022-12-09): Pwp Amazon Tips Privacycom TN: 1244340 (844) 771-8229

⚠️  AMBIGUOUS MATCH
  Amount: $-7.00
  Privacy.com (2022-12-15): Pwp Amazon Tips*2J8Q03BI3
  Possible WF match 1 (2022-12-19): Pwp Amazon Tips Privacycom TN: 1322255 (844) 771-8229
  Possible WF match 2 (2022-12-19): Pwp Amazon Tips Privacycom TN: 7838112 (844) 771-8229

⚠️  AMBIGUOUS MATCH
  Amount: $-7.00
  Privacy.com (2022-12-17): Pwp Amazon Tips*EF4UD1MD3
  Possible WF match 1 (2022-12-19): Pwp Amazon Tips Privacycom TN: 1322255 (844) 771-8229
  Possible WF match 2 (2022-12-19): Pwp Amazon Tips Privacycom TN: 7838112 (844) 771-8229
  Possible WF match 3 (2022-12-21): Pwp Amazon Tips Privacycom TN: 1083803 (844) 771-8229

⚠️  AMBIGUOUS MATCH
  Amount: $-7.00
  Privacy.com (2022-12-20): Pwp Amazon Tips*4K19P7LH3
  Possible WF match 1 (2022-12-19): Pwp Amazon Tips Privacycom TN: 1322255 (844) 771-8229
  Possible WF match 2 (2022-12-19): Pwp Amazon Tips Privacycom TN: 7838112 (844) 771-8229
  Possible WF match 3 (2022-12-21): Pwp Amazon Tips Privacycom TN: 1083803 (844) 771-8229

⚠️  AMBIGUOUS MATCH
  Amount: $-19.29
  Privacy.com (2022-02-05): Pwp AMZN Mktp US*4C1H99IG3
  Possible WF match 1 (2022-02-02): Pwp Amzn Mktp U Privacycom TN: 3579224 (844) 771-8229
  Possible WF match 2 (2022-02-07): Pwp Amzn Mktp U Privacycom TN: 7937859 (844) 771-8229

⚠️  AMBIGUOUS MATCH
  Amount: $-10.00
  Privacy.com (2022-04-23): Pwp Amazon Tips*1Q7KJ21Q1
  Possible WF match 1 (2022-04-18): Pwp Amazon Tips Privacycom TN: 1599339 (844) 771-8229
  Possible WF match 2 (2022-04-25): Pwp Amazon Tips Privacycom TN: 5776109 (844) 771-8229
  Possible WF match 3 (2022-04-25): Pwp Etsy.Com - Privacycom TN: 4141851 (844) 771-8229
